<?xml version="1.0" encoding="UTF-8"?>

<!-- generated on 2022-06-27 17:03:41 by Eclipse SUMO polyconvert Version 1.13.0
<configuration xmlns:xsi="http://www.w3.org/2001/XMLSchema-instance" xsi:noNamespaceSchemaLocation="http://sumo.dlr.de/xsd/polyconvertConfiguration.xsd">

    <input>
        <net-file value="osm.net.xml"/>
        <osm-files value="osm_bbox.osm.xml.gz"/>
        <osm.keep-full-type value="true"/>
        <type-file value="C:\Program%20Files%20(x86)\Eclipse\Sumo\data\typemap\osmPolyconvert.typ.xml"/>
    </input>

    <output>
        <output-file value="osm.poly.xml"/>
    </output>

    <processing>
        <poi-layer-offset value="5"/>
    </processing>

    <report>
        <verbose value="true"/>
    </report>

</configuration>
-->

<additional xmlns:xsi="http://www.w3.org/2001/XMLSchema-instance" xsi:noNamespaceSchemaLocation="http://sumo.dlr.de/xsd/additional_file.xsd">
    <location netOffset="-662657.39,-5100539.26" convBoundary="-7227.46,-22443.59,55901.56,31449.93" origBoundary="11.001758,45.838883,11.831761,46.311138" projParameter="+proj=utm +zone=32 +ellps=WGS84 +datum=WGS84 +units=m +no_defs"/>

    <poly id="100017372" type="building.yes" color="255,230,230" fill="1" layer="-1.00" shape="1160.688875,3413.135617 1165.014818,3395.416890 1157.359306,3394.612566 1155.973552,3401.313422 1148.080089,3400.436060 1147.026366,3407.746156 1149.070297,3407.422572 1160.688875,3413.135617"/>
    <poly id="100154202" type="building.yes" color="255,230,230" fill="1" layer="-1.00" shape="1564.205791,3500.148330 1565.925999,3484.417158 1567.207253,3469.474795 1565.947619,3469.407801 1553.616340,3469.534368 1552.067696,3488.405531 1549.021367,3488.012870 1548.972928,3497.362209 1547.652895,3509.990898 1555.545219,3509.745786 1557.150347,3499.192747 1561.314133,3499.759793 1563.187970,3500.009965 1564.205791,3500.148330"/>
    <poly id="100154203" type="building.yes" color="255,230,230" fill="1" layer="-1.00" shape="1499.216926,3491.986700 1502.977703,3484.748905 1503.793948,3482.002196 1511.046308,3482.829552 1507.262623,3494.113853 1499.216926,3491.986700"/>
    <poly id="100154204" type="building.yes" color="255,230,230" fill="1" layer="-1.00" shape="1511.609665,3499.122025 1514.778006,3500.451876 1518.957561,3484.775235 1511.046308,3482.829552 1507.262623,3494.113853 1506.992624,3499.009888 1511.609665,3499.122025"/>
    <poly id="1013683849" type="amenity.parking" color="184,184,179" fill="1" layer="-1.00" shape="2559.054263,1364.250668 2564.066449,1361.816861 2566.515248,1382.196147 2561.319721,1385.692407 2559.054263,1364.250668"/>
    <poly id="1013683850" type="landuse.grass" color="194,194,130" fill="1" layer="-3.00" shape="2553.741428,1381.919898 2554.717946,1381.879404 2555.946508,1381.389818 2556.808835,1380.412303 2556.987120,1379.538727 2556.674379,1375.616611 2556.298022,1375.217358 2555.780310,1375.181222 2555.176290,1375.476324 2552.882460,1381.618874 2553.162426,1381.859879 2553.741428,1381.919898"/>
    <poly id="1013683855" type="landuse.forest" color="140,196,107" fill="1" layer="-3.00" shape="2548.347616,1440.380808 2549.306369,1443.308482 2550.889656,1446.041671 2551.837369,1449.380435 2552.177549,1452.280383 2552.094027,1455.391327 2551.598735,1458.268845 2551.938615,1461.179904 2551.236524,1464.263121 2550.740935,1467.151750 2548.314494,1472.467970 2548.231271,1475.567803 2548.558046,1478.678644 2549.736993,1481.189726 2550.697805,1484.328708 2550.821380,1487.222841 2552.532363,1493.272780 2554.335538,1495.600489 2556.152115,1497.717307 2557.955287,1500.045018 2561.778527,1504.695146 2566.878268,1507.934144 2569.335776,1509.245405 2571.787912,1510.756656 2576.675176,1514.412462 2577.854104,1516.923550 2578.592923,1520.256709 2578.646349,1526.050896 2579.187340,1528.967358 2579.853956,1534.989262 2579.291821,1548.427583 2582.107402,1559.466057 2582.679429,1569.009995 2583.019583,1571.909946 2583.150575,1574.815399 2584.728438,1577.748589 2583.168508,1581.642656 2580.836357,1583.447942 2578.392287,1581.925783 2576.801315,1579.192377 2573.192669,1574.336746 2572.646012,1571.631384 2574.748992,1562.793034 2574.826860,1559.893189 2573.444744,1557.165393 2571.855831,1554.643296 2570.139220,1548.804451 2568.759465,1546.276853 2566.739711,1543.943322 2565.365324,1541.215736 2564.192065,1538.493550 2564.143997,1532.499375 2563.804129,1529.588315 2563.887360,1526.488482 2562.714097,1523.766297 2557.647779,1519.282924 2550.522605,1513.921509 2547.562866,1508.249430 2546.258579,1502.621796 2545.090672,1499.699626 2544.204113,1494.083208 2544.287334,1490.983375 2543.738586,1488.066709 2542.441728,1482.450395 2541.477312,1479.733822 2541.226315,1473.511830 2541.716232,1470.834301 2543.109368,1465.078952 2543.479306,1459.084883 2545.000160,1456.646283 2545.442285,1447.963469 2546.420057,1442.397104 2548.347616,1440.380808"/>
    <poly id="1013683856" type="landuse.forest" color="140,196,107" fill="1" layer="-3.00" shape="2397.297039,1320.016696 2394.983651,1313.328020 2398.062267,1306.783964 2404.345198,1304.884444 2410.971684,1305.473573 2417.627959,1305.240738 2424.298853,1304.174414 2430.958423,1303.530297 2444.241188,1303.886648 2453.392062,1303.298277 2457.856155,1307.153872 2460.620614,1312.609406 2459.219797,1318.364563 2456.573486,1324.086302 2454.754931,1329.830251 2455.006033,1336.052236 2455.678469,1341.863021 2455.345480,1354.273463 2459.610091,1365.561993 2460.688930,1371.806188 2459.694833,1377.983643 2459.384191,1389.560796 2457.565350,1395.315856 2457.399000,1401.515521 2458.079158,1407.326516 2457.506099,1413.103884 2459.013696,1418.948199 2462.210457,1423.581449 2467.557943,1425.381599 2473.356556,1425.948586 2479.166201,1426.104490 2484.532449,1427.493774 2490.286631,1429.716244 2494.750903,1433.560759 2495.422986,1439.382662 2495.267628,1445.171239 2497.185478,1451.015458 2501.195298,1456.504441 2503.951906,1461.959790 2510.300574,1472.892917 2521.853268,1475.682447 2526.325222,1479.527194 2532.489339,1481.760711 2533.239224,1484.682776 2533.359208,1487.999316 2534.111459,1491.121577 2535.734573,1494.389521 2534.772458,1497.354575 2531.426066,1498.298763 2520.854840,1497.592484 2515.176289,1500.341989 2507.500320,1499.924702 2501.420746,1502.040818 2495.415410,1501.679504 2491.740155,1499.301569 2490.138089,1496.979276 2490.215916,1494.079432 2490.716843,1490.990810 2490.387969,1487.668666 2488.804668,1484.935493 2488.255595,1482.029942 2488.344453,1478.719010 2487.998879,1476.019054 2486.301228,1469.758243 2487.999772,1460.697764 2488.487298,1457.820034 2488.565123,1454.920190 2487.617377,1451.581438 2485.281783,1445.726010 2484.943940,1443.026263 2482.079685,1441.292737 2474.592219,1441.925694 2471.064668,1441.831032 2468.183712,1440.719701 2465.541720,1438.780896 2462.644067,1438.291757 2459.523219,1438.619400 2456.592176,1439.374641 2453.685862,1439.496792 2451.013771,1438.391074 2450.263542,1435.480132 2450.572575,1431.752604 2449.404608,1428.830453 2446.732511,1427.724737 2443.829486,1427.435596 2441.385022,1425.924605 2437.996370,1420.652464 2431.720776,1414.491222 2430.965169,1411.780271 2431.656174,1409.108130 2435.305956,1404.647459 2436.843471,1401.586644 2436.921270,1398.686801 2436.379898,1395.781464 2434.591268,1392.620295 2432.155743,1390.486912 2429.731245,1387.942441 2427.303453,1385.809267 2426.782357,1381.859336 2426.871179,1378.548403 2428.205488,1375.270884 2430.130655,1373.054355 2431.470630,1369.565736 2431.960504,1366.888199 2430.792513,1363.966053 2429.619156,1361.243896 2429.983616,1355.449812 2428.274538,1349.611220 2426.463535,1347.283343 2425.922151,1344.378007 2422.904399,1340.572353 2418.604475,1338.388962 2416.586964,1336.255682 2415.012243,1332.911244 2415.090030,1330.011400 2414.554302,1326.894967 2411.898844,1325.167078 2401.739398,1324.683318 2399.303834,1322.549949 2397.297039,1320.016696"/>
    <poly id="1015636752" type="amenity.grave_yard" color="237,199,199" fill="1" layer="-1.00" shape="2471.344848,3166.500553 2492.270776,3159.045959 2492.420918,3148.843162 2469.475813,3145.314012 2471.344848,3166.500553"/>
    <poly id="1022609718" type="amenity.parking" color="184,184,179" fill="1" layer="-1.00" shape="1388.221345,2959.819994 1390.241083,2959.829390 1390.546236,2918.210078 1388.534515,2918.189778 1388.221345,2959.819994"/>
    <poly id="1022609719" type="amenity.parking" color="184,184,179" fill="1" layer="-1.00" shape="1394.921258,2959.620667 1396.832720,2959.627177 1397.007884,2908.664904 1395.104140,2908.658600 1394.921258,2959.620667"/>
    <poly id="1023950721" type="amenity.parking" color="184,184,179" fill="1" layer="-1.00" shape="1429.277854,2078.922817 1433.768172,2080.343436 1429.011862,2095.571131 1424.543870,2094.184466 1429.277854,2078.922817"/>
    <poly id="1023950722" type="amenity.parking" color="184,184,179" fill="1" layer="-1.00" shape="1437.076481,2081.387859 1431.612342,2098.775886 1436.210639,2100.210505 1441.689668,2082.845116 1437.076481,2081.387859"/>
    <poly id="1023950725" type="amenity.parking" color="184,184,179" fill="1" layer="-1.00" shape="1422.169166,2101.959626 1426.615429,2103.290117 1424.339737,2110.545350 1419.861354,2109.258477 1422.169166,2101.959626"/>
    <poly id="1023950731" type="landuse.grass" color="194,194,130" fill="1" layer="-3.00" shape="1424.543870,2094.184466 1429.011862,2095.571131 1427.551651,2100.402058 1422.991139,2099.001808 1424.543870,2094.184466"/>
    <poly id="1023950732" type="landuse.grass" color="194,194,130" fill="1" layer="-3.00" shape="1431.612342,2098.775886 1430.792706,2101.355737 1435.362135,2102.711757 1436.210639,2100.210505 1431.612342,2098.775886"/>
    <poly id="1023950733" type="landuse.grass" color="194,194,130" fill="1" layer="-3.00" shape="1422.169166,2101.959626 1422.347898,2101.352879 1426.793865,2102.694481 1426.615429,2103.290117 1422.169166,2101.959626"/>
    <poly id="1023950734" type="landuse.grass" color="194,194,130" fill="1" layer="-3.00" shape="1429.996602,2104.214178 1430.175038,2103.618542 1434.621002,2104.960150 1434.442269,2105.566896 1429.996602,2104.214178"/>
    <poly id="1023950735" type="amenity.parking" color="184,184,179" fill="1" layer="-1.00" shape="1429.996602,2104.214178 1434.442269,2105.566896 1432.300730,2112.725639 1427.823239,2111.405429 1429.996602,2104.214178"/>
    <poly id="1023950736" type="landuse.grass" color="194,194,130" fill="1" layer="-3.00" shape="1419.861354,2109.258477 1418.978986,2112.159092 1423.463620,2113.501723 1424.339737,2110.545350 1419.861354,2109.258477"/>
    <poly id="1023950737" type="amenity.parking" color="184,184,179" fill="1" layer="-1.00" shape="1418.978986,2112.159092 1423.463620,2113.501723 1421.970106,2118.420711 1417.493506,2117.067176 1418.978986,2112.159092"/>
    <poly id="1023950738" type="landuse.grass" color="194,194,130" fill="1" layer="-3.00" shape="1417.493506,2117.067176 1416.924674,2116.918585 1416.111595,2119.543087 1415.974361,2121.496270 1416.599005,2123.325233 1418.225904,2125.014149 1419.854753,2125.468971 1421.970106,2118.420711 1417.493506,2117.067176"/>
    <poly id="1023950741" type="landuse.grass" color="194,194,130" fill="1" layer="-3.00" shape="1427.823239,2111.405429 1426.932243,2114.339167 1431.400812,2115.703613 1432.300730,2112.725639 1427.823239,2111.405429"/>
    <poly id="1023950742" type="amenity.parking" color="184,184,179" fill="1" layer="-1.00" shape="1426.932243,2114.339167 1431.400812,2115.703613 1429.900149,2120.600171 1425.423849,2119.235520 1426.932243,2114.339167"/>
    <poly id="1023950743" type="landuse.grass" color="194,194,130" fill="1" layer="-3.00" shape="1429.900149,2120.600171 1430.453215,2120.759462 1429.693980,2123.396517 1428.727291,2125.105209 1427.201550,2126.298662 1424.912358,2126.804648 1423.300461,2126.294684 1425.423849,2119.235520 1429.900149,2120.600171"/>
    <poly id="1023950744" type="landuse.grass" color="194,194,130" fill="1" layer="-3.00" shape="1429.277854,2078.922817 1429.708788,2077.566744 1434.207139,2078.976458 1433.768172,2080.343436 1429.277854,2078.922817"/>
    <poly id="1023950745" type="landuse.grass" color="194,194,130" fill="1" layer="-3.00" shape="1437.076481,2081.387859 1437.490466,2080.086926 1442.103653,2081.544183 1441.689668,2082.845116 1437.076481,2081.387859"/>
    <poly id="1023950748" type="amenity.parking" color="184,184,179" fill="1" layer="-1.00" shape="1470.503903,2111.710022 1473.999250,2099.939901 1479.190761,2101.479327 1475.687966,2113.238127 1470.503903,2111.710022"/>
    <poly id="1023950749" type="landuse.grass" color="194,194,130" fill="1" layer="-3.00" shape="1473.999250,2099.939901 1474.661326,2098.334273 1475.697675,2096.916525 1477.515584,2095.797589 1479.635836,2095.531720 1482.534416,2095.975960 1476.785938,2115.313212 1469.942384,2113.318333 1470.503903,2111.710022 1475.687966,2113.238127 1479.190761,2101.479327 1473.999250,2099.939901"/>
    <poly id="1023950750" type="amenity.parking" color="184,184,179" fill="1" layer="-1.00" shape="1466.562157,2124.835802 1469.396985,2115.482996 1474.050296,2116.885757 1471.223196,2126.238767 1466.562157,2124.835802"/>
    <poly id="1023950751" type="amenity.parking" color="184,184,179" fill="1" layer="-1.00" shape="1465.963447,2126.387529 1470.785141,2127.861491 1465.910130,2143.764219 1461.088152,2142.301372 1465.963447,2126.387529"/>
    <poly id="1023950752" type="amenity.parking" color="184,184,179" fill="1" layer="-1.00" shape="1455.423361,2123.104382 1460.245356,2124.567225 1455.370371,2140.469961 1450.548388,2139.007122 1455.423361,2123.104382"/>
    <poly id="1023950753" type="amenity.parking" color="184,184,179" fill="1" layer="-1.00" shape="1455.764443,2121.634729 1459.252674,2110.420334 1464.104728,2111.917336 1460.608458,2123.142633 1455.764443,2121.634729"/>
    <poly id="1023950754" type="amenity.parking" color="184,184,179" fill="1" layer="-1.00" shape="1459.793356,2108.722519 1463.261597,2096.807131 1468.162146,2098.227600 1464.693896,2110.142986 1459.793356,2108.722519"/>
    <poly id="1026057088" type="landuse.construction" color="194,194,130" fill="1" layer="-3.00" shape="1101.748644,1543.962516 1110.633533,1514.368339 1031.674523,1461.067266 1015.083843,1517.863376 1101.748644,1543.962516"/>
    <poly id="1026127749" type="building.public" color="255,230,230" fill="1" layer="-1.00" shape="1399.244207,3403.640038 1407.208380,3403.896977 1407.060904,3407.684436 1398.963787,3407.479542 1399.244207,3403.640038"/>
    <poly id="1028894725" type="leisure.garden" color="207,245,201" fill="1" layer="-2.00" shape="1142.376464,2980.263393 1162.509578,2985.380395 1164.298971,2967.305026 1144.901343,2965.954517 1142.376464,2980.263393"/>
    <poly id="1028894727" type="building.yes" color="255,230,230" fill="1" layer="-1.00" shape="1150.185520,2962.826431 1150.777265,2957.171796 1157.330039,2957.846648 1156.809669,2963.436473 1150.185520,2962.826431"/>
    <poly id="1028894729" type="leisure.garden" color="207,245,201" fill="1" layer="-2.00" shape="1191.943745,3037.331442 1190.959985,3043.464842 1203.128740,3045.401204 1201.169230,3057.657098 1188.738438,3055.680404 1189.147393,3053.111823 1188.037574,3052.937718 1187.768601,3054.609435 1183.707101,3053.967555 1183.912169,3052.661044 1179.712051,3051.993237 1179.553939,3052.989683 1177.064507,3052.600935 1177.892421,3051.155357 1172.293629,3050.116744 1170.912340,3048.512253 1168.615324,3047.872910 1167.774708,3047.761571 1168.679174,3040.536450 1167.051484,3040.337437 1167.287701,3038.442478 1166.921509,3038.243711 1166.735859,3037.949687 1165.695345,3037.788551 1165.406452,3037.302763 1165.558012,3036.261669 1157.556356,3035.070121 1159.155490,3024.427909 1157.899019,3024.238785 1158.189075,3022.356378 1159.668940,3022.584807 1160.652630,3016.162322 1159.504136,3015.987193 1159.718413,3014.625334 1161.159906,3014.841623 1162.173943,3008.442183 1160.586393,3008.188649 1163.594356,2989.400802 1182.121174,2992.351467 1175.529466,3033.525301 1175.343714,3034.687787 1191.943745,3037.331442"/>
    <poly id="1028894730" type="landuse.grass" color="194,194,130" fill="1" layer="-3.00" shape="1049.937708,2791.246479 1055.004532,2791.926137 1058.021780,2769.580613 1052.939469,2768.900541 1049.937708,2791.246479"/>
    <poly id="1028894731" type="landuse.grass" color="194,194,130" fill="1" layer="-3.00" shape="1047.002158,2814.594836 1052.291773,2815.336015 1054.557090,2799.141194 1049.259727,2798.399808 1047.002158,2814.594836"/>
    <poly id="1028894744" type="leisure.garden" color="207,245,201" fill="1" layer="-2.00" shape="1149.246065,1520.788525 1165.361504,1529.867660 1167.682898,1530.485383 1180.501119,1504.653963 1171.822473,1500.320208 1168.847626,1499.240350 1166.744642,1498.850810 1164.744042,1498.686364 1161.523014,1498.711795 1158.711183,1499.359634 1155.656816,1501.557592 1153.007849,1504.811472 1137.713562,1527.697370 1141.872488,1530.243005 1149.246065,1520.788525"/>
    <poly id="1028894749" type="building.yes" color="255,230,230" fill="1" layer="-1.00" shape="1187.912186,2966.710986 1201.627428,2967.543335 1202.438038,2954.256175 1202.198287,2954.249788 1195.530132,2953.838657 1188.722767,2953.423825 1187.912186,2966.710986"/>
    <poly id="1028894750" type="building.yes" color="255,230,230" fill="1" layer="-1.00" shape="1188.722767,2953.423825 1187.290513,2953.441263 1187.547378,2950.190407 1188.161201,2942.546165 1188.217037,2941.902783 1203.109705,2942.988867 1203.004284,2944.331388 1202.198287,2954.249788 1195.530132,2953.838657 1188.722767,2953.423825"/>
    <poly id="1028894754" type="building.yes" color="255,230,230" fill="1" layer="-1.00" shape="1180.693309,2949.785459 1187.547378,2950.190407 1188.161201,2942.546165 1181.161066,2942.103969 1180.693309,2949.785459"/>
    <poly id="103027510" type="building.yes" color="255,230,230" fill="1" layer="-1.00" shape="1432.569236,3306.419890 1426.770285,3305.931614 1427.203021,3302.185122 1423.012038,3301.761989 1424.442695,3294.840007 1433.422598,3296.480524 1432.569236,3306.419890"/>
    <poly id="1030895911" type="natural.scrub" color="140,196,107" fill="1" layer="-4.00" shape="1483.771363,1545.591121 1486.103489,1555.381952 1491.329580,1561.736563 1499.513789,1554.705681 1505.908816,1536.975624 1508.743045,1527.945247 1509.896935,1519.803989 1506.422903,1509.871500 1512.074488,1504.340763 1514.589601,1499.437929 1523.064078,1493.137515 1537.820031,1480.911823 1537.628502,1472.423352 1527.203354,1466.241299 1516.925987,1462.353604 1523.170920,1454.025743 1525.207707,1443.840017 1521.164538,1443.632076 1514.134926,1454.095978 1506.055514,1469.090435 1503.926202,1478.973500 1501.781864,1493.192351 1499.862856,1525.951627 1492.803253,1529.999418 1483.771363,1545.591121"/>
    <poly id="1032880274" type="natural.tree_row" color="140,196,107" fill="0" layer="-4.00" shape="2578.055632,2578.704623 2394.517243,2574.077426"/>
    <poly id="1032880288" type="landuse.grass" color="194,194,130" fill="1" layer="-3.00" shape="2610.140154,2585.826293 2613.511871,2581.614002 2613.861792,2580.689446 2614.439865,2579.915560 2615.297817,2579.671766 2616.313986,2579.876965 2616.887772,2580.414953 2617.132533,2581.099761 2617.109846,2581.944161 2617.035406,2582.698223 2620.412582,2583.756275 2624.563078,2567.267799 2619.584537,2572.804492 2615.246903,2576.957472 2607.876403,2581.929574 2607.886990,2583.264084 2608.204592,2584.406709 2610.140154,2585.826293"/>
    <poly id="1032880293" type="amenity.parking" color="184,184,179" fill="1" layer="-1.00" shape="2503.421347,2639.720162 2505.355277,2639.182806 2503.113778,2631.573132 2501.626320,2624.706411 2500.776782,2620.024933 2498.810737,2620.316821 2499.629339,2624.997468 2501.048085,2631.828988 2502.549650,2637.017189 2503.421347,2639.720162"/>
    <poly id="1032880294" type="amenity.parking_space" color="237,199,199" fill="1" layer="-1.00" shape="2496.690910,2604.427106 2496.373951,2598.358992 2498.234385,2598.253283 2498.559076,2604.321604 2496.690910,2604.427106"/>
    <poly id="1032948956" type="leisure.garden" color="207,245,201" fill="1" layer="-2.00" shape="2593.678569,2878.191074 2659.042734,2778.446218 2673.421714,2779.366382 2736.711424,2783.625130 2750.894535,2788.087031 2799.965909,2795.522043 2801.729084,2811.402318 2795.226902,2828.983771 2754.908983,2864.735206 2724.843836,2880.437815 2683.122408,2888.099814 2690.934457,2947.304915 2683.844400,2953.374067 2658.205279,2942.644830 2651.047860,2930.199806 2648.834586,2905.712846 2619.123350,2890.693769 2593.678569,2878.191074"/>
    <poly id="1034551585" type="building.service" color="255,230,230" fill="1" layer="-1.00" shape="2593.347940,3126.993239 2593.415733,3124.182065 2595.217995,3124.219371 2595.157934,3127.030753 2593.347940,3126.993239"/>
    <poly id="1034551591" type="landuse.grass" color="194,194,130" fill="1" layer="-3.00" shape="2548.288708,2899.686964 2546.974495,2899.918510 2545.796486,2900.553982 2544.887950,2901.530250 2544.336944,2902.738491 2544.193156,2904.057736 2544.483369,2905.355283 2545.217106,2906.564675 2546.323294,2907.450514 2547.657375,2907.919970 2549.066160,2907.913335 2550.402703,2907.426663 2551.494767,2906.533156 2552.223656,2905.329694 2552.500714,2903.947317 2552.319377,2902.630457 2551.732288,2901.436121 2550.798039,2900.488188 2549.607049,2899.878033 2548.288708,2899.686964"/>
    <poly id="1034551592" type="natural.tree_row" color="140,196,107" fill="0" layer="-4.00" shape="2277.966923,2681.802917 2516.538093,2932.356660"/>
    <poly id="1034562170" type="man_made.bridge" color="255,230,230" fill="1" layer="-1.00" shape="2585.431237,1797.747556 2586.145536,1798.244837 2589.717025,1800.731239 2592.977030,1802.998026 2593.835614,1803.599249 2568.449377,1839.764295 2564.186218,1836.803471 2560.826856,1834.489557 2560.105123,1833.980961 2585.431237,1797.747556"/>
    <poly id="104171324" type="building.yes" color="255,230,230" fill="1" layer="-1.00" shape="1202.980262,3281.030139 1205.323046,3270.363273 1218.669800,3272.219892 1218.396115,3276.682210 1210.711928,3276.077194 1210.270625,3281.602415 1202.980262,3281.030139"/>
    <poly id="104171327" type="building.yes" color="255,230,230" fill="1" layer="-1.00" shape="1330.529695,3305.299217 1331.604067,3299.835354 1345.486566,3303.074107 1347.698728,3303.989220 1346.415835,3309.436403 1330.529695,3305.299217"/>
    <poly id="1046474609" type="landuse.construction" color="194,194,130" fill="1" layer="-3.00" shape="1528.862223,3246.826569 1530.545202,3235.386128 1560.845955,3236.461982 1558.158015,3250.177106 1528.862223,3246.826569"/>
    <poly id="1047509791" type="building.yes" color="255,230,230" fill="1" layer="-1.00" shape="2524.242779,3657.749116 2528.482240,3658.374452 2529.103650,3654.255039 2524.864484,3653.618592 2524.242779,3657.749116"/>
    <poly id="1047510847" type="building.yes" color="255,230,230" fill="1" layer="-1.00" shape="2632.785732,1651.254184 2633.465405,1656.787234 2637.185379,1656.342356 2637.580221,1659.510627 2641.486743,1659.037407 2642.402181,1666.455825 2648.840648,1665.672600 2646.483839,1646.496523 2635.431899,1647.845167 2635.806819,1650.890598 2632.785732,1651.254184"/>
    <poly id="1054347492" type="landuse.grass" color="194,194,130" fill="1" layer="-3.00" shape="1237.678399,2764.191659 1238.549695,2757.343689 1250.256110,2758.934242 1249.322039,2765.813894 1237.678399,2764.191659"/>
    <poly id="1054528735" type="amenity.parking" color="184,184,179" fill="1" layer="-1.00" shape="1307.151001,2113.369371 1310.470899,2102.361669 1306.242379,2100.992592 1299.490070,2096.443102 1294.507067,2094.920506 1290.645449,2108.248646 1307.151001,2113.369371"/>
    <poly id="1054532059" type="natural.scrub" color="140,196,107" fill="1" layer="-4.00" shape="1052.190762,2053.633864 1062.346571,2055.660818 1064.725759,2056.135512 1067.629452,2056.679756 1078.323711,1973.031590 1092.193097,1866.942077 1092.664718,1858.237808 1075.048430,1852.065254 1071.791208,1892.727483 1069.054419,1914.124271 1065.791271,1943.957032 1056.953167,2019.816133 1052.190762,2053.633864"/>
    <poly id="105956784" type="building.apartments" color="255,230,230" fill="1" layer="-1.00" shape="1654.036499,3565.055971 1654.389574,3559.661824 1652.965921,3550.673408 1619.562040,3553.127627 1619.980797,3558.019825 1629.005078,3557.693865 1629.065851,3559.474445 1629.151041,3561.789364 1620.126766,3562.115324 1620.266124,3565.009851 1654.036499,3565.055971"/>
    <poly id="105956786" type="building.apartments" color="255,230,230" fill="1" layer="-1.00" shape="1620.779788,3543.753927 1620.534797,3545.392917 1619.736757,3550.063595 1619.562040,3553.127627 1652.965921,3550.673408 1652.006105,3544.599309 1636.297155,3546.603427 1635.452537,3542.589328 1620.779788,3543.753927"/>
    <poly id="105956788" type="building.yes" color="255,230,230" fill="1" layer="-1.00" shape="1483.557487,3037.757717 1482.582354,3043.846843 1486.194093,3044.521392 1488.103776,3044.883675 1482.843586,3058.708069 1482.337896,3061.996754 1477.509541,3060.800527 1470.273577,3059.339923 1471.273337,3035.506403 1483.557487,3037.757717"/>
    <poly id="105956790" type="building.yes" color="255,230,230" fill="1" layer="-1.00" shape="1598.820975,3516.093870 1598.385852,3521.374642 1580.495031,3520.463177 1582.300240,3512.561682 1598.820975,3516.093870"/>
    <poly id="105956795" type="building.hotel" color="255,230,230" fill="1" layer="-1.00" shape="1647.674352,3620.700749 1643.603733,3619.835930 1640.902686,3617.528948 1643.528406,3612.517957 1645.395872,3599.392455 1647.264615,3599.542451 1649.002489,3599.666715 1650.109756,3592.691658 1626.420841,3587.222214 1625.101055,3590.856053 1610.237964,3584.955354 1602.815286,3593.985413 1610.688562,3600.533258 1606.338381,3605.498197 1617.612815,3613.926980 1615.671623,3615.909805 1625.021439,3625.410156 1627.584200,3622.465514 1633.739701,3627.555454 1633.382960,3630.770282 1636.960452,3631.844289 1641.635758,3633.247828 1641.409168,3628.405235 1645.562695,3627.904695 1647.674352,3620.700749"/>
    <poly id="105956801" type="building.apartments" color="255,230,230" fill="1" layer="-1.00" shape="1599.051886,3572.926561 1611.842418,3576.748304 1613.625647,3563.587190 1599.214404,3559.888931 1599.051886,3572.926561"/>
    <poly id="105956805" type="building.yes" color="255,230,230" fill="1" layer="-1.00" shape="1650.109756,3592.691658 1626.420841,3587.222214 1626.900293,3581.731376 1627.158001,3578.747390 1627.469513,3575.197799 1653.443588,3574.212875 1650.109756,3592.691658"/>
    <poly id="105956807" type="building.yes" color="255,230,230" fill="1" layer="-1.00" shape="1599.051886,3572.926561 1598.475301,3575.101500 1597.106546,3580.279504 1600.129975,3581.527702 1610.237964,3584.955354 1625.101055,3590.856053 1626.420841,3587.222214 1626.900293,3581.731376 1618.475887,3580.750263 1618.477242,3578.382064 1618.476864,3576.947770 1611.842418,3576.748304 1599.051886,3572.926561"/>
    <poly id="105956812" type="building.yes" color="255,230,230" fill="1" layer="-1.00" shape="1497.378399,2200.207093 1500.555734,2201.225823 1501.653469,2197.797280 1498.476133,2196.778550 1497.378399,2200.207093"/>
    <poly id="105956813" type="building.apartments" color="255,230,230" fill="1" layer="-1.00" shape="1642.788102,3647.176718 1641.069552,3640.826622 1662.953302,3636.519225 1663.229607,3642.686248 1642.788102,3647.176718"/>
    <poly id="105956815" type="building.apartments" color="255,230,230" fill="1" layer="-1.00" shape="1617.620476,3564.683450 1613.625647,3563.587190 1611.842418,3576.748304 1618.476864,3576.947770 1618.480313,3574.790878 1617.620476,3564.683450"/>
    <poly id="105956816" type="building.yes" color="255,230,230" fill="1" layer="-1.00" shape="1488.103776,3044.883675 1490.271984,3045.708715 1488.998568,3049.054739 1503.677326,3056.695745 1498.130970,3067.032413 1482.843586,3058.708069 1488.103776,3044.883675"/>
    <poly id="105956817" type="building.yes" color="255,230,230" fill="1" layer="-1.00" shape="1600.129975,3581.527702 1596.448836,3588.678622 1602.815286,3593.985413 1610.237964,3584.955354 1600.129975,3581.527702"/>
    <poly id="105956819" type="building.apartments" color="255,230,230" fill="1" layer="-1.00" shape="1662.409608,3624.140944 1645.562695,3627.904695 1647.674352,3620.700749 1651.728717,3599.872980 1658.600405,3598.433295 1662.409608,3624.140944"/>
    <poly id="106277587" type="building.yes" color="255,230,230" fill="1" layer="-1.00" shape="1454.597601,2872.398510 1455.101489,2862.505418 1461.950291,2862.821580 1461.821716,2865.319800 1461.335988,2872.211396 1454.597601,2872.398510"/>
    <poly id="106277594" type="building.yes" color="255,230,230" fill="1" layer="-1.00" shape="1398.822931,2887.332550 1414.345011,2883.977431 1414.363061,2876.917700 1399.104850,2874.731755 1398.822931,2887.332550"/>
    <poly id="106445960" type="amenity.fuel" color="237,199,199" fill="0" layer="-1.00" shape="1321.512253,2832.202670 1318.553229,2856.973486 1303.767120,2855.656486"/>
    <poly id="106445962" type="amenity.fuel" color="237,199,199" fill="0" layer="-1.00" shape="1303.767120,2855.656486 1294.818467,2854.850910"/>
    <poly id="106572234" type="building.yes" color="255,230,230" fill="1" layer="-1.00" shape="2191.726203,1391.157224 2193.920147,1368.211849 2206.869509,1369.448242 2204.675516,1392.393613 2191.726203,1391.157224"/>
    <poly id="106572238" type="building.yes" color="255,230,230" fill="1" layer="-1.00" shape="2178.729874,1346.590867 2187.133640,1331.116678 2197.031492,1336.451856 2188.627410,1351.937142 2178.729874,1346.590867"/>
    <poly id="106572239" type="building.yes" color="255,230,230" fill="1" layer="-1.00" shape="2336.061144,1337.920874 2337.765992,1320.821859 2351.046004,1322.145247 2349.341119,1339.244258 2336.061144,1337.920874"/>
    <poly id="106572242" type="building.yes" color="255,230,230" fill="1" layer="-1.00" shape="2223.131588,1352.794826 2224.923899,1335.308993 2236.246985,1336.568582 2234.175254,1354.080282 2223.131588,1352.794826"/>