<?xml version="1.0" encoding="UTF-8"?>

<!-- generated on 2022-06-27 17:03:47 by Eclipse SUMO duarouter Version 1.13.0
<configuration xmlns:xsi="http://www.w3.org/2001/XMLSchema-instance" xsi:noNamespaceSchemaLocation="http://sumo.dlr.de/xsd/duarouterConfiguration.xsd">

    <input>
        <net-file value="C:\Users\carlo\Sumo\2022-06-27-17-03-17\osm.net.xml"/>
        <route-files value="C:\Users\carlo\Sumo\2022-06-27-17-03-17\osm.passenger.trips.xml"/>
    </input>

    <output>
        <output-file value="C:\Users\carlo\Sumo\2022-06-27-17-03-17\osm.passenger.trips.xml.tmp"/>
        <write-trips value="true"/>
    </output>

    <time>
        <begin value="0"/>
        <end value="3600"/>
    </time>

    <report>
        <no-warnings value="true"/>
        <ignore-errors value="true"/>
        <no-step-log value="true"/>
    </report>

</configuration>
-->

<routes xmlns:xsi="http://www.w3.org/2001/XMLSchema-instance" xsi:noNamespaceSchemaLocation="http://sumo.dlr.de/xsd/routes_file.xsd">
    <vType id="veh_passenger" vClass="passenger"/>
    <trip id="veh0" type="veh_passenger" depart="0.00" departLane="best" from="24558722#0" to="-174008871#0"/>
    <trip id="veh1" type="veh_passenger" depart="3.64" departLane="best" departSpeed="max" from="-53198081#1" to="-307279423"/>
    <trip id="veh4" type="veh_passenger" depart="14.57" departLane="best" from="-306120650#2" to="24055255"/>
    <trip id="veh5" type="veh_passenger" depart="18.21" departLane="best" departSpeed="max" from="-124889878#2" to="-25456365#0"/>
    <trip id="veh6" type="veh_passenger" depart="21.86" departLane="best" departSpeed="max" from="24711288#0" to="24436840#1"/>
    <trip id="veh7" type="veh_passenger" depart="25.50" departLane="best" from="-306203532#1" to="24443817#3"/>
    <trip id="veh8" type="veh_passenger" depart="29.14" departLane="best" from="34662179#0" to="-109372552#0"/>
    <trip id="veh9" type="veh_passenger" depart="32.79" departLane="best" from="31301717#5" to="25456356#1"/>
    <trip id="veh12" type="veh_passenger" depart="43.71" departLane="best" from="-24054414#1" to="-24161868#0"/>
    <trip id="veh13" type="veh_passenger" depart="47.36" departLane="best" from="42288372#2" to="24443833#1"/>
    <trip id="veh14" type="veh_passenger" depart="51.00" departLane="best" from="31663311#1" to="306097131#1"/>
    <trip id="veh15" type="veh_passenger" depart="54.64" departLane="best" from="24094905#1" to="97251479#2"/>
    <trip id="veh16" type="veh_passenger" depart="58.29" departLane="best" from="1023950747#1" to="24436952#3"/>
    <trip id="veh17" type="veh_passenger" depart="61.93" departLane="best" from="37134283#1" to="24558722#8"/>
    <trip id="veh18" type="veh_passenger" depart="65.57" departLane="best" from="457205183" to="24443801#2"/>
    <trip id="veh19" type="veh_passenger" depart="69.21" departLane="best" departSpeed="max" from="24916923#0" to="-225109819#0"/>
    <trip id="veh20" type="veh_passenger" depart="72.86" departLane="best" from="-307279424#3" to="-77021620#0"/>
    <trip id="veh21" type="veh_passenger" depart="76.50" departLane="best" from="-23951047#5" to="-31663310#1"/>
    <trip id="veh22" type="veh_passenger" depart="80.14" departLane="best" departSpeed="max" from="-24055255" to="-71840954#0"/>
    <trip id="veh23" type="veh_passenger" depart="83.79" departLane="best" from="24454097#0" to="112091127"/>
    <trip id="veh24" type="veh_passenger" depart="87.43" departLane="best" departSpeed="max" from="-975718388" to="-25703475#0"/>
    <trip id="veh25" type="veh_passenger" depart="91.07" departLane="best" departSpeed="max" from="-447095536#1" to="838173996#1"/>
    <trip id="veh27" type="veh_passenger" depart="98.36" departLane="best" departSpeed="max" from="-24711295#3" to="306097131#1"/>
    <trip id="veh29" type="veh_passenger" depart="105.64" departLane="best" from="97251505#7" to="24728642#1"/>
    <trip id="veh30" type="veh_passenger" depart="109.29" departLane="best" from="24226872#8" to="24917219#9"/>
    <trip id="veh32" type="veh_passenger" depart="116.57" departLane="best" from="-30791977#0" to="-183172054#1"/>
    <trip id="veh33" type="veh_passenger" depart="120.21" departLane="best" departSpeed="max" from="-77021620#4" to="-68286131"/>
    <trip id="veh34" type="veh_passenger" depart="123.86" departLane="best" departSpeed="max" from="669394540" to="-97236432#1"/>
    <trip id="veh35" type="veh_passenger" depart="127.50" departLane="best" from="24711288#4" to="191633685#11"/>
    <trip id="veh36" type="veh_passenger" depart="131.14" departLane="best" from="73711330#3" to="23889513#3"/>
    <trip id="veh37" type="veh_passenger" depart="134.79" departLane="best" from="-447095536#0" to="-40367379#0"/>
    <trip id="veh38" type="veh_passenger" depart="138.43" departLane="best" from="24389747#1" to="-669394539#1"/>
    <trip id="veh39" type="veh_passenger" depart="142.07" departLane="best" from="24443784#1" to="75601413#1"/>
    <trip id="veh40" type="veh_passenger" depart="145.71" departLane="best" from="106628925#0" to="-306203532#0"/>
    <trip id="veh41" type="veh_passenger" depart="149.36" departLane="best" from="977518809#1" to="24094897#2"/>
    <trip id="veh42" type="veh_passenger" depart="153.00" departLane="best" from="-24054411#3" to="-227652625#1"/>
    <trip id="veh43" type="veh_passenger" depart="156.64" departLane="best" from="-24226869#4" to="24711281"/>
    <trip id="veh44" type="veh_passenger" depart="160.29" departLane="best" from="307279424#3" to="23356218"/>
    <trip id="veh45" type="veh_passenger" depart="163.93" departLane="best" from="-23795535#2" to="144783737#2"/>
    <trip id="veh46" type="veh_passenger" depart="167.57" departLane="best" from="97749768#6" to="24226872#3"/>
    <trip id="veh47" type="veh_passenger" depart="171.21" departLane="best" from="97121839#5" to="68286123#0"/>
    <trip id="veh48" type="veh_passenger" depart="174.86" departLane="best" from="-109372552#1" to="300457031#1"/>
    <trip id="veh49" type="veh_passenger" depart="178.50" departLane="best" departSpeed="max" from="24914807" to="24392334#2"/>
    <trip id="veh50" type="veh_passenger" depart="182.14" departLane="best" departSpeed="max" from="-447095536#1" to="24728642#1"/>
    <trip id="veh51" type="veh_passenger" depart="185.79" departLane="best" from="-24226872#11" to="23763110#0"/>
    <trip id="veh53" type="veh_passenger" depart="193.07" departLane="best" departSpeed="max" from="669394540" to="-68286123#0"/>
    <trip id="veh54" type="veh_passenger" depart="196.71" departLane="best" from="23889513#1" to="-24916807#1"/>
    <trip id="veh55" type="veh_passenger" depart="200.36" departLane="best" from="73711330#1" to="684985754#3"/>
    <trip id="veh56" type="veh_passenger" depart="204.00" departLane="best" from="-74199063#2" to="24711313"/>
    <trip id="veh57" type="veh_passenger" depart="207.64" departLane="best" from="24443816#2" to="-24711288#3"/>
    <trip id="veh58" type="veh_passenger" depart="211.29" departLane="best" from="306097131#0" to="24392334#7"/>
    <trip id="veh59" type="veh_passenger" depart="214.93" departLane="best" from="306341972" to="24226872#8"/>
    <trip id="veh60" type="veh_passenger" depart="218.57" departLane="best" from="-1023950747#0" to="-97251505#6"/>
    <trip id="veh61" type="veh_passenger" depart="222.21" departLane="best" from="-118389121#10" to="823407785#0"/>
    <trip id="veh62" type="veh_passenger" depart="225.86" departLane="best" from="68286123#0" to="447095536#1"/>
    <trip id="veh63" type="veh_passenger" depart="229.50" departLane="best" departSpeed="max" from="-75687275#1" to="-23795382#0"/>
    <trip id="veh65" type="veh_passenger" depart="236.79" departLane="best" from="-239818741#1" to="240092039#1"/>
    <trip id="veh66" type="veh_passenger" depart="240.43" departLane="best" from="306120651" to="-24443821#1"/>
    <trip id="veh67" type="veh_passenger" depart="244.07" departLane="best" from="23751933#0" to="24436848#1"/>
    <trip id="veh68" type="veh_passenger" depart="247.71" departLane="best" departSpeed="max" from="-447095536#1" to="68506161#0"/>
    <trip id="veh69" type="veh_passenger" depart="251.36" departLane="best" from="174008871#1" to="-25703672#2"/>
    <trip id="veh70" type="veh_passenger" depart="255.00" departLane="best" from="24161642#5" to="306120650#1"/>
    <trip id="veh71" type="veh_passenger" depart="258.64" departLane="best" departSpeed="max" from="-25456350" to="-97121843#0"/>
    <trip id="veh72" type="veh_passenger" depart="262.29" departLane="best" from="97749768#2" to="24771360#1"/>
    <trip id="veh73" type="veh_passenger" depart="265.93" departLane="best" from="191633685#10" to="24161653#1"/>
    <trip id="veh74" type="veh_passenger" depart="269.57" departLane="best" from="-24389748#8" to="-307279424#2"/>
    <trip id="veh76" type="veh_passenger" depart="276.86" departLane="best" from="-308178197" to="-306203532#2"/>
    <trip id="veh77" type="veh_passenger" depart="280.50" departLane="best" departSpeed="max" from="-23889513#3" to="24711288#12"/>
    <trip id="veh78" type="veh_passenger" depart="284.14" departLane="best" from="-307279426#2" to="758131123#0"/>
    <trip id="veh79" type="veh_passenger" depart="287.79" departLane="best" departSpeed="max" from="452934477" to="-23914029#1"/>
    <trip id="veh80" type="veh_passenger" depart="291.43" departLane="best" from="-36884642#1" to="24916400#1"/>
    <trip id="veh81" type="veh_passenger" depart="295.07" departLane="best" from="-25703672#1" to="-24443830#1"/>
    <trip id="veh82" type="veh_passenger" depart="298.72" departLane="best" from="809919844#5" to="24443792"/>
    <trip id="veh83" type="veh_passenger" depart="302.36" departLane="best" departSpeed="max" from="23751867#0" to="36884642#2"/>
    <trip id="veh84" type="veh_passenger" depart="306.00" departLane="best" from="322476202#0" to="-25456274#0"/>
    <trip id="veh85" type="veh_passenger" depart="309.64" departLane="best" departSpeed="max" from="-24055252#1" to="23762228#1"/>
    <trip id="veh86" type="veh_passenger" depart="313.29" departLane="best" from="174172359" to="23951045#5"/>
    <trip id="veh87" type="veh_passenger" depart="316.93" departLane="best" departSpeed="max" from="25456365#0" to="24916923#1"/>
    <trip id="veh88" type="veh_passenger" depart="320.57" departLane="best" from="97251496#6" to="-24161871#2"/>
    <trip id="veh89" type="veh_passenger" depart="324.22" departLane="best" from="110057082#2" to="1057256027"/>
    <trip id="veh90" type="veh_passenger" depart="327.86" departLane="best" departSpeed="max" from="452934477" to="-43385386#1"/>
    <trip id="veh91" type="veh_passenger" depart="331.50" departLane="best" departSpeed="max" from="-24917139#1" to="23795655#0"/>
    <trip id="veh93" type="veh_passenger" depart="338.79" departLane="best" from="-37134282#8" to="809919845#1"/>
    <trip id="veh94" type="veh_passenger" depart="342.43" departLane="best" from="191633685#7" to="68286128#1"/>
    <trip id="veh95" type="veh_passenger" depart="346.07" departLane="best" from="24226869#2" to="-23234595#0"/>
    <trip id="veh96" type="veh_passenger" depart="349.72" departLane="best" from="993035145" to="452934463"/>
    <trip id="veh97" type="veh_passenger" depart="353.36" departLane="best" from="97117418#3" to="809923546#6"/>
    <trip id="veh98" type="veh_passenger" depart="357.00" departLane="best" from="42288373#1" to="-24915969#0"/>
    <trip id="veh99" type="veh_passenger" depart="360.64" departLane="best" from="23763977#1" to="-25703713#0"/>
    <trip id="veh100" type="veh_passenger" depart="364.29" departLane="best" from="109372552#0" to="-23795535#0"/>
    <trip id="veh101" type="veh_passenger" depart="367.93" departLane="best" from="1036632237#1" to="973617616#1"/>
    <trip id="veh102" type="veh_passenger" depart="371.57" departLane="best" departSpeed="max" from="-447095536#1" to="36884642#2"/>
    <trip id="veh103" type="veh_passenger" depart="375.22" departLane="best" departSpeed="max" from="225109819#0" to="23356218"/>
    <trip id="veh105" type="veh_passenger" depart="382.50" departLane="best" from="24226872#3" to="293396882#2"/>
    <trip id="veh106" type="veh_passenger" depart="386.14" departLane="best" from="-24454097#2" to="-809923546#4"/>
    <trip id="veh107" type="veh_passenger" depart="389.79" departLane="best" from="97117418#3" to="24443804#3"/>
    <trip id="veh108" type="veh_passenger" depart="393.43" departLane="best" from="24161653#1" to="306718695#0"/>
    <trip id="veh109" type="veh_passenger" depart="397.07" departLane="best" from="-23680878#2" to="24443813"/>
    <trip id="veh110" type="veh_passenger" depart="400.72" departLane="best" from="23914028#0" to="574537083"/>
    <trip id="veh111" type="veh_passenger" depart="404.36" departLane="best" from="-24479576#0" to="97111251#2"/>
    <trip id="veh112" type="veh_passenger" depart="408.00" departLane="best" from="-23951047#6" to="-24916939#1"/>
    <trip id="veh113" type="veh_passenger" depart="411.64" departLane="best" from="24443793#0" to="24916939#1"/>
    <trip id="veh114" type="veh_passenger" depart="415.29" departLane="best" from="-35209301#2" to="-24442249#2"/>
    <trip id="veh115" type="veh_passenger" depart="418.93" departLane="best" departSpeed="max" from="68502196#0" to="-38569319#0"/>
    <trip id="veh116" type="veh_passenger" depart="422.57" departLane="best" from="24443791#1" to="24615057#0"/>
    <trip id="veh117" type="veh_passenger" depart="426.22" departLane="best" from="151230133#0" to="24443810#5"/>
    <trip id="veh118" type="veh_passenger" depart="429.86" departLane="best" from="239818741#3" to="829951748"/>
    <trip id="veh119" type="veh_passenger" depart="433.50" departLane="best" from="-25573322#1" to="283010968#1"/>
    <trip id="veh120" type="veh_passenger" depart="437.14" departLane="best" departSpeed="max" from="-36884642#2" to="191633685#11"/>
    <trip id="veh122" type="veh_passenger" depart="444.43" departLane="best" departSpeed="max" from="-77021620#4" to="307004688"/>
    <trip id="veh123" type="veh_passenger" depart="448.07" departLane="best" from="986891985#2" to="97749768#6"/>
    <trip id="veh124" type="veh_passenger" depart="451.72" departLane="best" from="-23913960#2" to="-25703713#0"/>
    <trip id="veh125" type="veh_passenger" depart="455.36" departLane="best" departSpeed="max" from="-447095536#1" to="829951746"/>
    <trip id="veh127" type="veh_passenger" depart="462.64" departLane="best" departSpeed="max" from="-975718388" to="-24755681#0"/>
    <trip id="veh128" type="veh_passenger" depart="466.29" departLane="best" from="37673565#1" to="25703371#2"/>
    <trip id="veh129" type="veh_passenger" depart="469.93" departLane="best" from="24443817#4" to="974959832#0"/>
    <trip id="veh130" type="veh_passenger" depart="473.57" departLane="best" from="24711288#15" to="-110057082#1"/>
    <trip id="veh131" type="veh_passenger" depart="477.22" departLane="best" from="24755681#0" to="840458163#1"/>
    <trip id="veh132" type="veh_passenger" depart="480.86" departLane="best" from="-24443785#2" to="-24392334#6"/>
    <trip id="veh133" type="veh_passenger" depart="484.50" departLane="best" from="-24161868#1" to="24442249#1"/>
    <trip id="veh134" type="veh_passenger" depart="488.14" departLane="best" departSpeed="max" from="-53198075" to="24449617#1"/>
    <trip id="veh135" type="veh_passenger" depart="491.79" departLane="best" from="25451413" to="-25573322#1"/>
    <trip id="veh136" type="veh_passenger" depart="495.43" departLane="best" from="24454035#1" to="-68286128#0"/>
    <trip id="veh137" type="veh_passenger" depart="499.07" departLane="best" from="23795535#2" to="758131123#0"/>
    <trip id="veh138" type="veh_passenger" depart="502.72" departLane="best" from="41881705#7" to="-24161642#2"/>
    <trip id="veh139" type="veh_passenger" depart="506.36" departLane="best" from="174172359" to="-696745511"/>
    <trip id="veh140" type="veh_passenger" depart="510.00" departLane="best" departSpeed="max" from="-104146038" to="31301717#2"/>
    <trip id="veh141" type="veh_passenger" depart="513.64" departLane="best" from="24454141#0" to="-669394539#0"/>
    <trip id="veh142" type="veh_passenger" depart="517.29" departLane="best" departSpeed="max" from="25703417" to="24436952#3"/>
    <trip id="veh143" type="veh_passenger" depart="520.93" departLane="best" departSpeed="max" from="183163976" to="-116236224#1"/>
    <trip id="veh144" type="veh_passenger" depart="524.57" departLane="best" from="-23914029#3" to="715573880#0"/>
    <trip id="veh145" type="veh_passenger" depart="528.22" departLane="best" departSpeed="max" from="71840954#0" to="24436840#2"/>
    <trip id="veh146" type="veh_passenger" depart="531.86" departLane="best" from="37691320" to="24443809"/>
    <trip id="veh147" type="veh_passenger" depart="535.50" departLane="best" from="-24443823#4" to="-24443816#4"/>
    <trip id="veh148" type="veh_passenger" depart="539.14" departLane="best" departSpeed="max" from="30791978" to="68286123#0"/>
    <trip id="veh149" type="veh_passenger" depart="542.79" departLane="best" from="715573880#0" to="-25703475#1"/>
    <trip id="veh150" type="veh_passenger" depart="546.43" departLane="best" from="-37134282#7" to="-24226872#14"/>
    <trip id="veh151" type="veh_passenger" depart="550.07" departLane="best" from="118389121#12" to="24615867#1"/>
    <trip id="veh152" type="veh_passenger" depart="553.72" departLane="best" from="-24454097#1" to="823407785#1"/>
    <trip id="veh153" type="veh_passenger" depart="557.36" departLane="best" from="529644928#1" to="97251496#2"/>
    <trip id="veh154" type="veh_passenger" depart="561.00" departLane="best" from="34663493#1" to="712328842"/>
    <trip id="veh155" type="veh_passenger" depart="564.64" departLane="best" from="-122270319#0" to="306205725#1"/>
    <trip id="veh156" type="veh_passenger" depart="568.29" departLane="best" departSpeed="max" from="-840458163#1" to="823407788"/>
    <trip id="veh157" type="veh_passenger" depart="571.93" departLane="best" from="308335486#1" to="68286130#4"/>
    <trip id="veh158" type="veh_passenger" depart="575.57" departLane="best" from="34663493#1" to="-68286130#2"/>
    <trip id="veh159" type="veh_passenger" depart="579.22" departLane="best" from="574541272#1" to="66887531#2"/>
    <trip id="veh160" type="veh_passenger" depart="582.86" departLane="best" from="-306341971#2" to="41881705#6"/>
    <trip id="veh161" type="veh_passenger" depart="586.50" departLane="best" from="23058856#0" to="-96942599"/>
    <trip id="veh162" type="veh_passenger" depart="590.14" departLane="best" from="-121911100#2" to="-25456356#0"/>
    <trip id="veh163" type="veh_passenger" depart="593.79" departLane="best" from="-829951743#0" to="68286131"/>
    <trip id="veh165" type="veh_passenger" depart="601.07" departLane="best" from="24615057#1" to="191633685#5"/>
    <trip id="veh166" type="veh_passenger" depart="604.72" departLane="best" from="97251496#1" to="24392333#0"/>
    <trip id="veh167" type="veh_passenger" depart="608.36" departLane="best" from="823407779#0" to="-24392334#6"/>
    <trip id="veh168" type="veh_passenger" depart="612.00" departLane="best" from="97121839#4" to="-24916807#1"/>
    <trip id="veh169" type="veh_passenger" depart="615.64" departLane="best" from="96892766" to="-68286130#0"/>
    <trip id="veh170" type="veh_passenger" depart="619.29" departLane="best" from="-24161871#2" to="23763110#0"/>
    <trip id="veh171" type="veh_passenger" depart="622.93" departLane="best" departSpeed="max" from="25456365#0" to="-97236432#0"/>
    <trip id="veh172" type="veh_passenger" depart="626.57" departLane="best" from="24443813" to="24094898#3"/>
    <trip id="veh173" type="veh_passenger" depart="630.22" departLane="best" from="1058552716" to="24443801#0"/>
    <trip id="veh175" type="veh_passenger" depart="637.50" departLane="best" departSpeed="max" from="-1028894721" to="809923546#4"/>
    <trip id="veh176" type="veh_passenger" depart="641.14" departLane="best" from="24161642#2" to="295396002#0"/>
    <trip id="veh177" type="veh_passenger" depart="644.79" departLane="best" departSpeed="max" from="25703417" to="24916807#2"/>
    <trip id="veh178" type="veh_passenger" depart="648.43" departLane="best" from="-97251505#3" to="-23913960#3"/>
    <trip id="veh179" type="veh_passenger" depart="652.07" departLane="best" from="24755681#1" to="1023950739#1"/>
    <trip id="veh180" type="veh_passenger" depart="655.72" departLane="best" from="-77021620#1" to="53198081#1"/>
    <trip id="veh181" type="veh_passenger" depart="659.36" departLane="best" departSpeed="max" from="25456274#0" to="-840458161"/>
    <trip id="veh183" type="veh_passenger" depart="666.64" departLane="best" from="110057082#1" to="-809923546#1"/>
    <trip id="veh184" type="veh_passenger" depart="670.29" departLane="best" from="-24436838#4" to="23234595#5"/>
    <trip id="veh185" type="veh_passenger" depart="673.93" departLane="best" from="823407785#0" to="24917139#1"/>
    <trip id="veh186" type="veh_passenger" depart="677.57" departLane="best" from="-75601395#2" to="24436846#0"/>
    <trip id="veh187" type="veh_passenger" depart="681.22" departLane="best" from="-1023950746" to="-75601438#0"/>
    <trip id="veh188" type="veh_passenger" depart="684.86" departLane="best" departSpeed="max" from="183165048" to="24443806#2"/>
    <trip id="veh189" type="veh_passenger" depart="688.50" departLane="best" from="24711288#3" to="23914029#8"/>
    <trip id="veh190" type="veh_passenger" depart="692.14" departLane="best" from="191633685#5" to="-25703713#0"/>
    <trip id="veh191" type="veh_passenger" depart="695.79" departLane="best" departSpeed="max" from="30791978" to="-24916400#0"/>
    <trip id="veh192" type="veh_passenger" depart="699.43" departLane="best" departSpeed="max" from="-239818712#1" to="24161642#8"/>
    <trip id="veh193" type="veh_passenger" depart="703.07" departLane="best" from="24449621#0" to="104146038"/>
    <trip id="veh196" type="veh_passenger" depart="714.00" departLane="best" from="-25456325#3" to="-174008869#0"/>
    <trip id="veh198" type="veh_passenger" depart="721.29" departLane="best" from="42288376#1" to="-23914029#6"/>
    <trip id="veh199" type="veh_passenger" depart="724.93" departLane="best" from="122602438#1" to="24711285"/>
    <trip id="veh200" type="veh_passenger" depart="728.57" departLane="best" from="-25033200#0" to="25456350"/>
    <trip id="veh201" type="veh_passenger" depart="732.22" departLane="best" departSpeed="max" from="23795681#0" to="-38531807#0"/>
    <trip id="veh202" type="veh_passenger" depart="735.86" departLane="best" from="24711288#6" to="-106628925#1"/>
    <trip id="veh203" type="veh_passenger" depart="739.50" departLane="best" from="29084862" to="308335486#5"/>
    <trip id="veh204" type="veh_passenger" depart="743.14" departLane="best" from="-24161642#9" to="23680878#3"/>
    <trip id="veh205" type="veh_passenger" depart="746.79" departLane="best" from="-24755681#0" to="97006158#7"/>
    <trip id="veh206" type="veh_passenger" depart="750.43" departLane="best" from="23957570#2" to="-23234595#0"/>
    <trip id="veh207" type="veh_passenger" depart="754.07" departLane="best" departSpeed="max" from="225109819#0" to="372798159#0"/>
    <trip id="veh210" type="veh_passenger" depart="765.00" departLane="best" departSpeed="max" from="68502196#0" to="24454097#3"/>
    <trip id="veh211" type="veh_passenger" depart="768.64" departLane="best" departSpeed="max" from="25456274#0" to="24055255"/>
    <trip id="veh212" type="veh_passenger" depart="772.29" departLane="best" from="372798159#0" to="24436846#0"/>
    <trip id="veh213" type="veh_passenger" depart="775.93" departLane="best" from="712328842" to="306341971#3"/>
    <trip id="veh214" type="veh_passenger" depart="779.57" departLane="best" from="23751867#1" to="-591045085#1"/>
    <trip id="veh215" type="veh_passenger" depart="783.22" departLane="best" from="-37134282#1" to="24711295#3"/>
    <trip id="veh216" type="veh_passenger" depart="786.86" departLane="best" from="306120651" to="24161871#3"/>
    <trip id="veh217" type="veh_passenger" depart="790.50" departLane="best" from="-23914029#8" to="-75601395#2"/>
    <trip id="veh218" type="veh_passenger" depart="794.14" departLane="best" from="-529644928#1" to="-97251479#2"/>
    <trip id="veh219" type="veh_passenger" depart="797.79" departLane="best" from="24161642#8" to="-24449621#2"/>
    <trip id="veh220" type="veh_passenger" depart="801.43" departLane="best" from="-308178198" to="25456325#2"/>
    <trip id="veh221" type="veh_passenger" depart="805.07" departLane="best" from="24917180#2" to="-23814996#2"/>
    <trip id="veh222" type="veh_passenger" depart="808.72" departLane="best" from="118389121#3" to="24436838#1"/>
    <trip id="veh224" type="veh_passenger" depart="816.00" departLane="best" from="162228660#1" to="75687280#1"/>
    <trip id="veh225" type="veh_passenger" depart="819.64" departLane="best" from="24443781#0" to="25456325#5"/>
    <trip id="veh226" type="veh_passenger" depart="823.29" departLane="best" departSpeed="max" from="447095532" to="308178200"/>
    <trip id="veh227" type="veh_passenger" depart="826.93" departLane="best" from="1057256025#1" to="-109372537#0"/>
    <trip id="veh228" type="veh_passenger" depart="830.57" departLane="best" from="-97121839#4" to="307004696"/>
    <trip id="veh230" type="veh_passenger" depart="837.86" departLane="best" from="151230133#0" to="306342330"/>
    <trip id="veh231" type="veh_passenger" depart="841.50" departLane="best" from="24161870#2" to="24443832"/>
    <trip id="veh232" type="veh_passenger" depart="845.14" departLane="best" departSpeed="max" from="186555612" to="-183165048"/>
    <trip id="veh233" type="veh_passenger" depart="848.79" departLane="best" departSpeed="max" from="-840458168" to="24917180#4"/>
    <trip id="veh234" type="veh_passenger" depart="852.43" departLane="best" from="116236224#2" to="-24915966#0"/>
    <trip id="veh235" type="veh_passenger" depart="856.07" departLane="best" from="23234595#1" to="-24443816#5"/>
    <trip id="veh236" type="veh_passenger" depart="859.72" departLane="best" from="24443829#1" to="-183163976"/>
    <trip id="veh237" type="veh_passenger" depart="863.36" departLane="best" from="1063621821" to="24443789#1"/>
    <trip id="veh238" type="veh_passenger" depart="867.00" departLane="best" departSpeed="max" from="-138790575#1" to="24732720#3"/>
    <trip id="veh239" type="veh_passenger" depart="870.64" departLane="best" departSpeed="max" from="-24443792" to="23914029#0"/>
    <trip id="veh240" type="veh_passenger" depart="874.29" departLane="best" from="-23058701#1" to="138790575#1"/>
    <trip id="veh241" type="veh_passenger" depart="877.93" departLane="best" from="-25703475#4" to="-97749768#2"/>
    <trip id="veh242" type="veh_passenger" depart="881.57" departLane="best" from="305538444#1" to="138790575#1"/>
    <trip id="veh243" type="veh_passenger" depart="885.22" departLane="best" from="293396882#1" to="447095536#1"/>
    <trip id="veh244" type="veh_passenger" depart="888.86" departLane="best" from="-37936030#3" to="-239994668"/>
    <trip id="veh245" type="veh_passenger" depart="892.50" departLane="best" from="-118389121#10" to="24392334#7"/>
    <trip id="veh246" type="veh_passenger" depart="896.15" departLane="best" from="993035146" to="1063621807"/>
    <trip id="veh247" type="veh_passenger" depart="899.79" departLane="best" departSpeed="max" from="24711288#0" to="36846233#1"/>
    <trip id="veh248" type="veh_passenger" depart="903.43" departLane="best" from="24711288#1" to="307004709#0"/>
    <trip id="veh249" type="veh_passenger" depart="907.07" departLane="best" from="840458164#0" to="-25456365#0"/>
    <trip id="veh250" type="veh_passenger" depart="910.72" departLane="best" from="-118389121#12" to="-24711288#2"/>
    <trip id="veh251" type="veh_passenger" depart="914.36" departLane="best" from="-24436838#1" to="24916515#3"/>
    <trip id="veh252" type="veh_passenger" depart="918.00" departLane="best" from="24916807#6" to="308178202#1"/>
    <trip id="veh253" type="veh_passenger" depart="921.65" departLane="best" from="-24711288#5" to="24449619#1"/>
    <trip id="veh254" type="veh_passenger" depart="925.29" departLane="best" from="260532241#1" to="-24392334#4"/>
    <trip id="veh255" type="veh_passenger" depart="928.93" departLane="best" from="36884642#1" to="97121841#0"/>
    <trip id="veh256" type="veh_passenger" depart="932.57" departLane="best" from="-24161871#1" to="-183163976"/>
    <trip id="veh257" type="veh_passenger" depart="936.22" departLane="best" departSpeed="max" from="-758183648#2" to="24917139#1"/>
    <trip id="veh259" type="veh_passenger" depart="943.50" departLane="best" from="24917649#1" to="-23951047#5"/>
    <trip id="veh260" type="veh_passenger" depart="947.15" departLane="best" from="24916400#1" to="24711281"/>
    <trip id="veh261" type="veh_passenger" depart="950.79" departLane="best" departSpeed="max" from="-24055255" to="31663310#1"/>
    <trip id="veh262" type="veh_passenger" depart="954.43" departLane="best" from="42288376#3" to="24443829#1"/>
    <trip id="veh263" type="veh_passenger" depart="958.07" departLane="best" from="306792403#1" to="106277593"/>
    <trip id="veh264" type="veh_passenger" depart="961.72" departLane="best" departSpeed="max" from="183165048" to="121911100#0"/>
    <trip id="veh265" type="veh_passenger" depart="965.36" departLane="best" from="-24161642#5" to="97111251#2"/>
    <trip id="veh266" type="veh_passenger" depart="969.00" departLane="best" from="24454097#0" to="447095527#1"/>
    <trip id="veh267" type="veh_passenger" depart="972.65" departLane="best" from="24917219#10" to="23763110#2"/>
    <trip id="veh268" type="veh_passenger" depart="976.29" departLane="best" from="25489512#1" to="97121841#2"/>
    <trip id="veh269" type="veh_passenger" depart="979.93" departLane="best" from="24161642#1" to="239979891"/>
    <trip id="veh270" type="veh_passenger" depart="983.57" departLane="best" departSpeed="max" from="186555612" to="306120650#4"/>