<?xml version="1.0" encoding="UTF-8"?>

<!-- generated on 2022-06-22 17:29:08 by Eclipse SUMO polyconvert Version 1.13.0
<configuration xmlns:xsi="http://www.w3.org/2001/XMLSchema-instance" xsi:noNamespaceSchemaLocation="http://sumo.dlr.de/xsd/polyconvertConfiguration.xsd">

    <input>
        <net-file value="osm.net.xml"/>
        <osm-files value="osm_bbox.osm.xml.gz"/>
        <osm.keep-full-type value="true"/>
        <type-file value="C:\Program%20Files%20(x86)\Eclipse\Sumo\data\typemap\osmPolyconvert.typ.xml"/>
    </input>

    <output>
        <output-file value="osm.poly.xml"/>
    </output>

    <processing>
        <poi-layer-offset value="5"/>
    </processing>

    <report>
        <verbose value="true"/>
    </report>

</configuration>
-->

<additional xmlns:xsi="http://www.w3.org/2001/XMLSchema-instance" xsi:noNamespaceSchemaLocation="http://sumo.dlr.de/xsd/additional_file.xsd">
    <location netOffset="-663896.68,-5102605.69" convBoundary="-7555.03,-21570.71,54662.27,29383.50" origBoundary="11.015081,45.861863,11.831761,46.311138" projParameter="+proj=utm +zone=32 +ellps=WGS84 +datum=WGS84 +units=m +no_defs"/>

    <poly id="112583213" type="building.yes" color="255,230,230" fill="1" layer="-1.00" shape="155.397324,359.866287 149.547716,358.053646 152.333575,349.077533 154.831280,341.038803 160.525619,342.869545 159.623675,345.925297 155.397324,359.866287"/>
    <poly id="112583225" type="building.yes" color="255,230,230" fill="1" layer="-1.00" shape="161.385632,339.934977 160.525619,342.869545 159.623675,345.925297 173.536841,350.121099 181.600915,346.100057 161.385632,339.934977"/>
    <poly id="121263317" type="building.yes" color="255,230,230" fill="1" layer="-1.00" shape="648.711810,496.501429 651.794831,482.808100 639.407453,480.041806 636.332194,493.735348 648.711810,496.501429"/>
    <poly id="125095993" type="building.yes" color="255,230,230" fill="1" layer="-1.00" shape="56.227541,242.680430 62.984060,244.739515 67.130016,246.006331 71.544909,247.347028 69.272411,254.780276 64.872992,253.439992 60.995683,252.258167 57.960450,262.172734 55.142540,261.319344 54.379792,263.800661 48.943595,262.154798 45.220095,261.010436 47.194903,254.581024 52.124170,256.079955 56.227541,242.680430"/>
    <poly id="125095999" type="building.yes" color="255,230,230" fill="1" layer="-1.00" shape="112.387124,322.651256 122.119986,325.712593 126.431096,312.074042 113.781558,308.089936 112.124569,313.338132 115.041517,314.249782 112.387124,322.651256"/>
    <poly id="125096000" type="building.yes" color="255,230,230" fill="1" layer="-1.00" shape="260.938642,361.703352 246.574871,357.573153 240.690753,377.940794 255.207984,382.119549 256.199771,378.599232 260.938642,361.703352"/>
    <poly id="136113697" type="building.yes" color="255,230,230" fill="1" layer="-1.00" shape="657.085961,606.464870 633.349782,642.854482 620.459518,644.144122 614.834071,634.542957 620.515929,629.591538 623.343698,629.778355 623.948808,631.751392 629.084334,631.021510 633.057209,625.146031 630.395668,622.795552 639.373316,608.926333 646.930966,599.244163 657.085961,606.464870"/>
    <poly id="136120314" type="building.yes" color="255,230,230" fill="1" layer="-1.00" shape="640.260500,464.354210 646.692398,456.543183 653.607754,462.198456 649.511884,467.170040 640.260500,464.354210"/>
    <poly id="136120319" type="building.yes" color="255,230,230" fill="1" layer="-1.00" shape="718.107899,402.227682 720.505643,404.604491 722.791167,402.208467 728.649570,408.024554 731.361384,405.317505 723.173658,397.170910 721.607136,398.730051 718.107899,402.227682"/>
    <poly id="136120320" type="building.apartments" color="255,230,230" fill="1" layer="-1.00" shape="764.045114,434.911337 770.516175,427.379440 758.499326,417.128966 752.475677,424.139163 755.510310,426.722048 754.136257,428.319688 760.212951,433.496778 761.131862,432.420644 764.045114,434.911337"/>
    <poly id="151230147" type="building.yes" color="255,230,230" fill="1" layer="-1.00" shape="567.448130,347.475429 561.722258,343.063977 558.884402,346.723917 564.610273,351.135366 567.448130,347.475429"/>
    <poly id="157923970" type="building.apartments" color="255,230,230" fill="1" layer="-1.00" shape="457.988863,460.971437 447.455894,453.685395 469.655759,424.080785 470.998781,422.193176 561.382256,491.564317 533.636581,527.680328 522.444312,520.454351 541.782458,494.542664 472.687148,441.562180 457.988863,460.971437"/>
    <poly id="159242465" type="amenity.place_of_worship" color="237,199,199" fill="1" layer="-1.00" shape="115.893886,523.810452 107.216111,522.700727 106.513197,528.163373 109.714371,528.571156 106.634346,552.649391 127.189486,555.332200 130.318633,530.866137 133.913073,531.328894 134.617789,525.799587 126.394866,524.757555 126.464952,520.968038 125.122799,518.764155 122.058934,517.270419 119.205274,517.472290 116.771536,519.342006 115.893886,523.810452"/>
    <poly id="159242465#1" type="building.yes" color="255,230,230" fill="1" layer="-1.00" shape="115.893886,523.810452 107.216111,522.700727 106.513197,528.163373 109.714371,528.571156 106.634346,552.649391 127.189486,555.332200 130.318633,530.866137 133.913073,531.328894 134.617789,525.799587 126.394866,524.757555 126.464952,520.968038 125.122799,518.764155 122.058934,517.270419 119.205274,517.472290 116.771536,519.342006 115.893886,523.810452"/>
    <poly id="159242470" type="building.yes" color="255,230,230" fill="1" layer="-1.00" shape="164.210576,490.854125 157.541696,490.453897 157.037764,498.901587 163.706635,499.301815 164.210576,490.854125"/>
    <poly id="163309749" type="building.yes" color="255,230,230" fill="1" layer="-1.00" shape="259.696080,594.179120 251.825185,593.290849 252.309988,589.045421 260.180889,589.933692 259.696080,594.179120"/>
    <poly id="163832951" type="building.yes" color="255,230,230" fill="1" layer="-1.00" shape="346.236540,332.348145 347.560293,327.702620 344.195661,326.745549 342.871614,331.402185 346.236540,332.348145"/>
    <poly id="194774772" type="amenity.parking" color="184,184,179" fill="1" layer="-1.00" shape="342.545747,427.390190 345.947547,413.038147 357.423380,415.746142 358.871368,409.636301 368.893684,411.994189 367.584866,417.529585 377.253158,419.811324 373.719841,434.738002 342.545747,427.390190"/>
    <poly id="201771943" type="building.yes" color="255,230,230" fill="1" layer="-1.00" shape="228.914723,563.727082 233.198088,564.186042 233.975926,557.079874 229.700587,556.610009 228.914723,563.727082"/>
    <poly id="205404120" type="amenity.school" color="237,199,199" fill="1" layer="-2.00" shape="429.066946,175.755265 436.546854,181.158502 449.389269,195.021609 446.683685,201.553695 451.350945,205.036152 469.114305,217.807739 446.414193,240.905835 395.963515,219.445004 399.453868,209.320360 371.297112,199.662579 377.430089,181.881165 354.818587,174.128258 360.749188,151.749506 409.851603,167.203393 421.286611,171.166779 429.066946,175.755265"/>
    <poly id="208263089" type="amenity.school" color="237,199,199" fill="1" layer="-2.00" shape="31.026397,507.828080 35.675769,475.386117 30.702526,475.253584 31.283972,445.883085 4.072799,446.658992 7.739469,341.287355 189.901591,375.284987 199.748519,377.838048 212.209453,380.761057 211.713113,385.439797 209.064536,387.526118 206.564399,389.560807 206.199523,393.953975 202.338759,426.683733 205.117845,426.958001 206.491327,427.116944 202.886623,456.051027 200.501835,475.233429 196.128220,507.460299 195.114535,529.792441 183.830886,528.590856 137.877409,521.983938 135.356265,521.616511 128.547493,517.465670 31.026397,507.828080"/>
    <poly id="208263090" type="amenity.school" color="237,199,199" fill="1" layer="-2.00" shape="476.958612,412.923967 539.979775,460.638730 570.429417,420.670207 507.408040,372.955139 476.958612,412.923967"/>
    <poly id="248369473" type="building.yes" color="255,230,230" fill="1" layer="-1.00" shape="73.414035,308.770547 69.599529,307.557033 72.512595,298.450859 76.319373,299.664169 73.414035,308.770547"/>
    <poly id="248369476" type="building.yes" color="255,230,230" fill="1" layer="-1.00" shape="98.403305,348.684718 101.546561,338.784166 102.444698,339.063833 105.266798,330.177616 121.047726,335.156906 119.518309,339.974882 117.304922,346.931598 112.139228,345.304005 109.908901,352.315863 98.403305,348.684718"/>
    <poly id="24917057" type="leisure.pitch" color="207,245,201" fill="1" layer="-2.00" shape="235.788944,569.191763 288.271413,577.941665 293.914401,544.281081 241.431647,535.531137 235.788944,569.191763"/>
    <poly id="24917057#1" type="sport.soccer" color="79,230,125" fill="1" layer="-2.00" shape="235.788944,569.191763 288.271413,577.941665 293.914401,544.281081 241.431647,535.531137 235.788944,569.191763"/>
    <poly id="25831919" type="landuse.residential" color="235,235,227" fill="1" layer="-3.00" shape="305.661907,840.067566 290.769320,936.100375 -40.160041,869.359287 -21.264572,698.127504 201.746086,708.853971 202.114467,567.103650 338.440518,585.496173 359.611552,451.194607 212.209453,380.761057 199.748519,377.838048 189.901591,375.284987 7.739469,341.287355 -3.882578,339.410012 -7.092677,454.088809 -4.538241,522.057063 -143.118027,503.067455 -140.534007,474.906606 -175.227721,470.091683 -177.039627,481.462060 -214.657871,476.313800 -179.504750,210.841259 -154.849202,24.608272 -127.909414,-127.296931 -106.552941,-283.153164 -84.043334,-363.951702 -70.333418,-435.789556 -30.839083,-533.146854 25.176138,-628.751902 78.172737,-692.938510 117.784794,-736.189708 165.705298,-600.913187 201.368794,-516.996592 203.626707,-511.677365 214.225180,-486.745169 403.188750,-108.500850 425.085268,-64.665311 435.954330,-32.831961 466.995866,27.080716 583.613713,176.805487 609.247892,195.980917 374.371859,506.258202 366.704833,550.482810 343.744815,672.072675 340.948458,686.363056 335.709996,726.316341 333.193988,725.759951 322.857175,783.322178 316.460726,833.606962 305.661907,840.067566"/>
    <poly id="263636342" type="amenity.parking" color="184,184,179" fill="1" layer="-1.00" shape="133.444540,553.253071 136.444863,528.394429 192.989013,535.194895 189.980726,560.053309 133.444540,553.253071"/>
    <poly id="275318467" type="building.garages" color="255,230,230" fill="1" layer="-1.00" shape="109.869964,280.033924 116.812651,282.075797 132.816446,227.899893 125.881140,225.869320 109.869964,280.033924"/>
    <poly id="284520203" type="amenity.parking" color="184,184,179" fill="1" layer="-1.00" shape="144.936987,518.180679 129.517159,516.513104 132.677350,487.400364 112.125010,485.184597 113.551130,472.047279 158.113212,476.860173 156.953577,487.547419 148.363531,486.628990 144.936987,518.180679"/>
    <poly id="284520205" type="amenity.parking" color="184,184,179" fill="1" layer="-1.00" shape="65.576928,479.674229 37.367386,476.676462 39.347175,458.150335 67.549067,461.147903 65.576928,479.674229"/>
    <poly id="288781953" type="leisure.pitch" color="207,245,201" fill="1" layer="-2.00" shape="60.523973,437.812093 74.181139,439.410262 76.553304,422.428945 76.744422,421.066472 62.680805,419.034966 60.523973,437.812093"/>
    <poly id="288781953#1" type="sport.volleyball" color="79,230,125" fill="1" layer="-2.00" shape="60.523973,437.812093 74.181139,439.410262 76.553304,422.428945 76.744422,421.066472 62.680805,419.034966 60.523973,437.812093"/>
    <poly id="288781954" type="amenity.parking" color="184,184,179" fill="1" layer="-1.00" shape="186.629056,476.208700 180.991576,491.112693 186.080912,492.115683 182.774391,526.994975 195.213487,528.694355 195.723404,504.936733 199.202083,477.533628 186.629056,476.208700"/>
    <poly id="289415061" type="amenity.bicycle_parking" color="237,199,199" fill="1" layer="-1.00" shape="158.662581,416.790801 166.115811,418.257077 164.451101,426.696046 156.997881,425.229770 158.662581,416.790801"/>
    <poly id="289415062" type="amenity.parking" color="184,184,179" fill="1" layer="-1.00" shape="165.214975,383.543535 158.662581,416.790801 166.115811,418.257077 172.675979,385.010025 165.214975,383.543535"/>
    <poly id="307255132" type="landuse.grass" color="194,194,130" fill="1" layer="-3.00" shape="110.914232,183.086849 118.884016,185.511890 121.885771,175.696520 113.915976,173.271475 110.914232,183.086849"/>
    <poly id="37017178" type="building.public" color="255,230,230" fill="1" layer="-1.00" shape="441.631836,555.219259 420.758389,546.200486 411.316115,567.918343 396.020770,561.305702 403.863115,543.269774 411.483022,525.739361 426.418787,532.197891 423.574129,538.726267 427.973606,540.633865 429.177916,537.853066 491.193358,564.660036 485.214823,578.398352 461.564231,568.171135 463.204893,564.412458 450.113332,558.748042 448.793908,561.781486 451.670851,563.025790 442.962553,583.050971 426.993780,576.153414 435.603581,556.336833 440.271072,558.351667 441.631836,555.219259"/>
    <poly id="37017195" type="building.yes" color="255,230,230" fill="1" layer="-1.00" shape="513.403189,372.214769 525.828613,355.902522 556.045951,378.780415 543.604422,395.114410 541.260182,393.339502 539.046148,396.248950 530.587240,389.840975 532.817039,386.920826 513.403189,372.214769"/>
    <poly id="37017234" type="amenity.hospital" color="237,199,199" fill="1" layer="-1.00" shape="659.421035,510.207912 661.873527,475.239180 707.840627,478.448123 707.438526,484.218977 725.771259,485.498979 724.733545,500.269916 710.982318,499.301526 711.436172,492.753764 697.985976,491.815696 696.795166,508.839591 722.814649,510.658824 723.325622,503.423244 742.878849,504.791555 741.739965,521.027425 732.415246,520.377593 731.874520,528.146065 724.450094,527.636050 724.284429,530.066566 705.071299,528.718529 705.243203,526.343773 678.157628,524.451614 679.067056,511.578503 659.421035,510.207912"/>
    <poly id="37017234#1" type="building.yes" color="255,230,230" fill="1" layer="-1.00" shape="659.421035,510.207912 661.873527,475.239180 707.840627,478.448123 707.438526,484.218977 725.771259,485.498979 724.733545,500.269916 710.982318,499.301526 711.436172,492.753764 697.985976,491.815696 696.795166,508.839591 722.814649,510.658824 723.325622,503.423244 742.878849,504.791555 741.739965,521.027425 732.415246,520.377593 731.874520,528.146065 724.450094,527.636050 724.284429,530.066566 705.071299,528.718529 705.243203,526.343773 678.157628,524.451614 679.067056,511.578503 659.421035,510.207912"/>
    <poly id="37017459" type="building.yes" color="255,230,230" fill="1" layer="-1.00" shape="443.222227,459.765271 453.512140,466.878037 429.378731,498.754801 437.141921,502.520097 431.991477,513.656625 410.193193,502.745289 443.222227,459.765271"/>
    <poly id="37483051" type="amenity.public_building" color="237,199,199" fill="1" layer="-1.00" shape="181.039531,282.409809 213.802310,176.557864 226.592779,180.490331 195.896946,279.648462 240.792941,293.465609 237.534984,304.174688 224.971165,300.170401 210.384996,295.956534 197.690841,291.904354 198.919654,287.912259 181.039531,282.409809"/>
    <poly id="37483051#1" type="building.yes" color="255,230,230" fill="1" layer="-1.00" shape="181.039531,282.409809 213.802310,176.557864 226.592779,180.490331 195.896946,279.648462 240.792941,293.465609 237.534984,304.174688 224.971165,300.170401 210.384996,295.956534 197.690841,291.904354 198.919654,287.912259 181.039531,282.409809"/>
    <poly id="37483498" type="building.yes" color="255,230,230" fill="1" layer="-1.00" shape="191.185923,198.291523 208.809683,140.000693 196.784604,136.388881 179.160953,194.679742 191.185923,198.291523"/>
    <poly id="37691106" type="amenity.hospital" color="237,199,199" fill="1" layer="-1.00" shape="574.000059,588.476748 579.740447,581.336516 609.331007,580.137597 613.159958,585.721409 593.504797,606.987994 574.000059,588.476748"/>
    <poly id="37691106#1" type="building.yes" color="255,230,230" fill="1" layer="-1.00" shape="574.000059,588.476748 579.740447,581.336516 609.331007,580.137597 613.159958,585.721409 593.504797,606.987994 574.000059,588.476748"/>
    <poly id="37858133" type="amenity.theatre" color="237,199,199" fill="1" layer="-1.00" shape="441.638395,622.764105 446.915178,637.603697 462.075346,640.866207 472.230667,628.962846 468.066437,613.330191 470.055632,602.031390 452.759517,598.756269 450.501580,612.582904 441.638395,622.764105"/>
    <poly id="37858133#1" type="building.yes" color="255,230,230" fill="1" layer="-1.00" shape="441.638395,622.764105 446.915178,637.603697 462.075346,640.866207 472.230667,628.962846 468.066437,613.330191 470.055632,602.031390 452.759517,598.756269 450.501580,612.582904 441.638395,622.764105"/>
    <poly id="385162547" type="amenity.library" color="237,199,199" fill="1" layer="-1.00" shape="215.874818,505.641098 239.138743,509.786349 250.813893,444.688079 227.549724,440.542790 215.874818,505.641098"/>
    <poly id="385162547#1" type="building.yes" color="255,230,230" fill="1" layer="-1.00" shape="215.874818,505.641098 239.138743,509.786349 250.813893,444.688079 227.549724,440.542790 215.874818,505.641098"/>
    <poly id="385162762" type="amenity.parking" color="184,184,179" fill="1" layer="-1.00" shape="220.838850,437.072686 225.309213,410.218616 226.387563,403.743099 258.059087,408.991079 287.049034,413.789626 281.499996,447.119167 278.518020,446.617080 254.714262,442.679654 224.568412,437.694756 220.838850,437.072686"/>
    <poly id="385162764" type="leisure.pitch" color="207,245,201" fill="1" layer="-2.00" shape="312.185610,410.424573 328.477740,413.928188 323.240117,438.193361 306.955488,434.701075 312.185610,410.424573"/>
    <poly id="385162765" type="amenity.parking" color="184,184,179" fill="1" layer="-1.00" shape="324.656532,439.643217 329.896420,413.843759 343.492109,416.586085 338.252164,442.385533 324.656532,439.643217"/>
    <poly id="447778607" type="amenity.parking" color="184,184,179" fill="1" layer="-1.00" shape="37.625409,227.374959 71.945987,238.107190 74.905752,228.702064 40.585124,217.969817 37.625409,227.374959"/>
    <poly id="452934451" type="building.yes" color="255,230,230" fill="1" layer="-1.00" shape="465.745198,595.345197 478.500558,601.712249 484.092773,590.554208 478.906497,587.969552 475.530230,594.694951 467.960837,590.923658 465.745198,595.345197"/>
    <poly id="452934462" type="building.yes" color="255,230,230" fill="1" layer="-1.00" shape="404.998185,332.405183 407.744131,325.807450 432.440532,336.040102 429.686828,342.637619 404.998185,332.405183"/>
    <poly id="557612422" type="amenity.parking" color="184,184,179" fill="1" layer="-1.00" shape="239.513269,516.345106 211.467409,511.861025 209.088826,530.810104 208.604060,538.246527 208.262173,543.518666 203.355962,546.967917 202.874888,552.525422 233.993337,555.557112 237.413313,531.810421 239.513269,516.345106"/>
    <poly id="557612441" type="landuse.grass" color="194,194,130" fill="1" layer="-3.00" shape="266.229050,520.493622 278.518020,446.617080 254.714262,442.679654 243.404034,510.633978 242.417843,516.556031 266.229050,520.493622"/>
    <poly id="658486934" type="building.yes" color="255,230,230" fill="1" layer="-1.00" shape="626.956568,246.965708 643.512895,261.440025 648.709866,255.530577 632.161268,241.056453 626.956568,246.965708"/>
    <poly id="666109612" type="building.yes" color="255,230,230" fill="1" layer="-1.00" shape="62.845442,578.666617 66.276741,578.279986 66.966029,581.166914 68.523597,583.710078 70.786101,585.649402 73.841878,586.864938 97.570639,589.532188 100.701121,588.526043 103.308833,586.516421 105.077589,583.750615 105.797708,580.545469 105.381180,577.298900 103.887837,574.379411 101.486680,572.125062 98.471646,570.832769 78.021276,568.286267 75.047709,568.051343 72.149809,568.752385 69.600650,570.307725 67.659610,572.568619 63.630988,573.006038 62.845442,578.666617"/>
    <poly id="666109613" type="building.yes" color="255,230,230" fill="1" layer="-1.00" shape="162.089484,596.500539 147.617800,596.726094 126.587130,593.885989 123.492431,592.969586 120.970565,591.178984 119.164338,588.673648 118.236497,585.735879 118.303089,582.657848 119.347792,579.761556 121.254622,577.332989 123.845723,575.656485 126.838809,574.869058 150.951979,577.924789 153.807839,579.090560 163.898566,583.517980 162.089484,596.500539"/>
    <poly id="666109614" type="amenity.school" color="237,199,199" fill="1" layer="-2.00" shape="42.243779,686.922455 42.931262,677.390047 31.037686,675.560960 15.224820,646.542967 10.672541,650.368702 9.166889,646.748449 4.715089,636.056202 3.131236,630.432550 7.530998,566.685557 11.833392,564.687699 12.128815,560.281556 12.783423,556.918998 9.376726,554.348814 9.610865,547.595052 16.457279,548.010971 17.265659,537.425536 22.737476,538.016083 23.384621,532.029379 52.024962,535.116406 54.498182,535.249035 56.089558,522.004930 57.134012,519.697898 60.024947,517.806991 63.371794,517.395869 107.216111,522.700727 106.513197,528.163373 109.714371,528.571156 106.634346,552.649391 127.189486,555.332200 166.896223,560.504935 167.129557,558.721090 183.558350,560.860416 182.042390,572.427630 179.443037,572.091453 174.942164,606.483036 176.885571,606.746123 175.038798,620.850638 163.476852,619.352579 163.710184,617.568733 158.272641,616.856668 152.772594,658.826625 153.898529,658.978957 152.605858,668.851010 154.727725,669.096615 163.384454,670.116910 163.482834,672.232037 163.859203,696.424684 163.889426,698.193322 163.249766,703.023901 137.560184,699.603621 102.237270,694.925937 100.748428,694.741702 98.689034,694.475544 97.123146,694.278137 95.904407,694.123341 63.627851,689.849536 47.362389,687.692631 44.371599,687.234891 42.243779,686.922455"/>
    <poly id="66615719" type="building.yes" color="255,230,230" fill="1" layer="-1.00" shape="797.244665,472.402182 805.114185,464.096112 793.239957,452.859836 785.340097,461.142871 797.244665,472.402182"/>
    <poly id="66615720" type="building.apartments" color="255,230,230" fill="1" layer="-1.00" shape="737.946922,445.853864 755.410949,461.953884 759.571171,457.473303 761.716611,459.443111 766.777603,453.985981 747.168127,435.916126 737.946922,445.853864"/>
    <poly id="66615723" type="building.yes" color="255,230,230" fill="1" layer="-1.00" shape="566.058474,352.263694 558.666389,362.117170 573.123349,372.888327 580.515446,363.034867 566.058474,352.263694"/>
    <poly id="66615730" type="building.yes" color="255,230,230" fill="1" layer="-1.00" shape="690.652687,344.699835 701.966502,352.885550 714.421025,335.796140 703.107193,327.610403 690.652687,344.699835"/>
    <poly id="66615731" type="building.yes" color="255,230,230" fill="1" layer="-1.00" shape="644.042383,333.379616 645.556532,331.463264 647.277822,332.799048 653.896064,324.392609 652.485950,323.287516 654.889559,320.238635 656.193766,321.251948 662.755809,312.921843 661.254661,311.747603 664.091108,308.143261 665.235860,309.041125 674.121532,297.760082 672.370191,296.390132 674.028635,294.288631 666.666862,288.532456 636.195720,327.232478 644.042383,333.379616"/>
    <poly id="66615734" type="building.yes" color="255,230,230" fill="1" layer="-1.00" shape="733.691409,392.871563 753.484578,375.166984 740.826172,361.119095 721.040734,378.823922 733.691409,392.871563"/>
    <poly id="66615737" type="building.yes" color="255,230,230" fill="1" layer="-1.00" shape="672.097685,271.277315 651.056687,252.869322 648.709866,255.530577 643.512895,261.440025 664.553883,279.847993 672.097685,271.277315"/>
    <poly id="66615740" type="amenity.hospital" color="237,199,199" fill="1" layer="-1.00" shape="609.663761,499.103904 630.504128,508.778427 647.196842,511.759936 649.576341,498.903910 631.110311,495.374635 613.519327,488.066299 609.663761,499.103904"/>
    <poly id="66615740#1" type="building.yes" color="255,230,230" fill="1" layer="-1.00" shape="609.663761,499.103904 630.504128,508.778427 647.196842,511.759936 649.576341,498.903910 631.110311,495.374635 613.519327,488.066299 609.663761,499.103904"/>
    <poly id="66615744" type="building.yes" color="255,230,230" fill="1" layer="-1.00" shape="682.952248,275.225678 650.378808,245.802076 659.836929,235.403563 692.410088,264.838325 682.952248,275.225678"/>
    <poly id="66615745" type="building.yes" color="255,230,230" fill="1" layer="-1.00" shape="590.683639,319.121932 609.838350,332.809521 617.917403,321.584663 598.762672,307.897049 590.683639,319.121932"/>
    <poly id="66615748" type="building.yes" color="255,230,230" fill="1" layer="-1.00" shape="729.493543,321.823277 738.450464,313.957604 728.202764,302.375860 719.245841,310.241548 729.493543,321.823277"/>
    <poly id="66615750" type="building.yes" color="255,230,230" fill="1" layer="-1.00" shape="666.994772,340.509001 668.425332,338.534826 670.103477,339.747159 676.685734,330.661553 674.962072,329.414645 677.582247,325.793405 679.389505,327.098143 685.489576,318.677873 683.803694,317.465329 685.057265,315.742146 679.073224,311.434860 677.111955,314.150893 674.902186,312.557426 669.404812,320.148825 670.771785,321.130464 668.384537,324.435501 667.222535,323.603886 660.801220,332.460319 662.016174,333.337823 660.304500,335.693628 666.994772,340.509001"/>
    <poly id="66615751" type="building.apartments" color="255,230,230" fill="1" layer="-1.00" shape="648.152377,431.476707 652.805116,425.074615 650.876509,423.677690 659.571897,411.691079 669.435967,418.803940 677.440368,407.766175 655.669333,392.073752 634.324286,421.511591 648.152377,431.476707"/>
    <poly id="66615761" type="building.yes" color="255,230,230" fill="1" layer="-1.00" shape="628.820007,322.576703 659.595404,282.050236 650.885066,275.490833 620.117730,316.006439 628.820007,322.576703"/>
    <poly id="66615763" type="building.apartments" color="255,230,230" fill="1" layer="-1.00" shape="613.847047,335.151535 632.363581,349.833915 640.028008,340.221293 621.511459,325.538890 613.847047,335.151535"/>
    <poly id="66615764" type="building.apartments" color="255,230,230" fill="1" layer="-1.00" shape="668.082099,443.662003 676.758883,451.754899 684.304009,443.706847 675.627221,435.613941 668.082099,443.662003"/>
    <poly id="66615765" type="building.yes" color="255,230,230" fill="1" layer="-1.00" shape="566.790845,299.970869 578.019816,285.283380 588.253692,293.050853 584.572466,297.855672 594.495132,305.392466 586.947662,315.263995 566.790845,299.970869"/>
    <poly id="66615790" type="building.yes" color="255,230,230" fill="1" layer="-1.00" shape="598.810493,496.278651 607.277802,483.841137 597.371845,477.138637 588.904251,489.587275 598.810493,496.278651"/>
    <poly id="66615795" type="building.yes" color="255,230,230" fill="1" layer="-1.00" shape="614.017851,238.458733 636.720254,210.091126 659.836929,235.403563 650.378808,245.802076 637.493894,234.994965 632.161268,241.056453 626.956568,246.965708 614.017851,238.458733"/>
    <poly id="66615815" type="building.apartments" color="255,230,230" fill="1" layer="-1.00" shape="763.551245,470.421697 780.666493,487.401940 789.813048,478.229442 772.697796,461.249174 763.551245,470.421697"/>
    <poly id="66615818" type="building.yes" color="255,230,230" fill="1" layer="-1.00" shape="589.885483,392.682647 602.536562,376.043025 592.271614,368.285807 579.620549,384.925450 589.885483,392.682647"/>
    <poly id="66615822" type="building.yes" color="255,230,230" fill="1" layer="-1.00" shape="567.095589,399.166897 574.624735,387.949524 560.389194,378.451787 552.860362,389.658066 567.095589,399.166897"/>
    <poly id="66615826" type="building.yes" color="255,230,230" fill="1" layer="-1.00" shape="574.430679,324.279966 558.298090,311.907432 548.195423,325.001764 554.536244,329.863261 556.276143,327.608251 566.060161,335.119057 574.430679,324.279966"/>
    <poly id="66615828" type="building.apartments" color="255,230,230" fill="1" layer="-1.00" shape="724.634157,474.772562 733.329567,483.032820 735.487453,480.777926 739.201216,484.301815 745.754607,477.450327 733.345430,465.666164 724.634157,474.772562"/>
    <poly id="66615842" type="building.apartments" color="255,230,230" fill="1" layer="-1.00" shape="637.007421,353.315899 651.060888,364.120926 666.397810,344.306671 656.773377,336.911152 648.604113,347.455322 644.174763,344.056896 637.007421,353.315899"/>
    <poly id="66615845" type="building.apartments" color="255,230,230" fill="1" layer="-1.00" shape="725.138108,431.357235 733.377836,439.004896 756.821499,413.881932 748.589201,406.245557 725.138108,431.357235"/>
    <poly id="66615854" type="building.yes" color="255,230,230" fill="1" layer="-1.00" shape="572.607145,401.749198 565.718726,411.293695 568.832556,413.522810 567.666789,415.148295 574.722055,420.206816 576.217415,418.123169 579.779256,420.675585 586.330360,411.589060 572.607145,401.749198"/>
    <poly id="66615860" type="building.yes" color="255,230,230" fill="1" layer="-1.00" shape="577.773821,465.573955 552.068503,447.653080 544.520703,458.414120 570.225994,476.334965 577.773821,465.573955"/>
    <poly id="66615863" type="building.yes" color="255,230,230" fill="1" layer="-1.00" shape="558.179789,342.680194 541.971991,331.095102 533.555172,342.800237 549.770687,354.385514 558.179789,342.680194"/>
    <poly id="66615869" type="building.yes" color="255,230,230" fill="1" layer="-1.00" shape="776.402417,369.698616 788.698383,381.379760 795.578568,374.181275 783.282600,362.500118 776.402417,369.698616"/>
    <poly id="66615871" type="building.yes" color="255,230,230" fill="1" layer="-1.00" shape="598.617780,257.737744 608.459586,265.405817 612.482652,260.265479 622.165277,267.807016 629.545979,258.386922 610.021233,243.188394 598.617780,257.737744"/>
    <poly id="66615880" type="building.apartments" color="255,230,230" fill="1" layer="-1.00" shape="712.294769,419.594860 721.855062,428.222912 733.376060,415.355824 723.767570,406.793176 712.294769,419.594860"/>