<?xml version="1.0" encoding="UTF-8"?>

<!-- generated on 2022-06-22 17:29:07 by Eclipse SUMO netconvert Version 1.13.0
<configuration xmlns:xsi="http://www.w3.org/2001/XMLSchema-instance" xsi:noNamespaceSchemaLocation="http://sumo.dlr.de/xsd/netconvertConfiguration.xsd">

    <input>
        <type-files value="C:\Program%20Files%20(x86)\Eclipse\Sumo\data\typemap\osmNetconvert.typ.xml"/>
        <osm-files value="osm_bbox.osm.xml.gz"/>
    </input>

    <output>
        <output-file value="osm.net.xml"/>
        <output.street-names value="true"/>
        <output.original-names value="true"/>
    </output>

    <projection>
        <proj.utm value="true"/>
    </projection>

    <processing>
        <geometry.remove value="true"/>
        <roundabouts.guess value="true"/>
    </processing>

    <tls_building>
        <tls.discard-simple value="true"/>
        <tls.join value="true"/>
        <tls.guess-signals value="true"/>
        <tls.default-type value="actuated"/>
    </tls_building>

    <ramp_guessing>
        <ramps.guess value="true"/>
    </ramp_guessing>

    <junctions>
        <junctions.join value="true"/>
        <junctions.corner-detail value="5"/>
    </junctions>

    <report>
        <verbose value="true"/>
        <aggregate-warnings value="5"/>
    </report>

</configuration>
-->

<net version="1.9" junctionCornerDetail="5" limitTurnSpeed="5.50" xmlns:xsi="http://www.w3.org/2001/XMLSchema-instance" xsi:noNamespaceSchemaLocation="http://sumo.dlr.de/xsd/net_file.xsd">

    <location netOffset="-663896.68,-5102605.69" convBoundary="0.00,0.00,905.06,794.59" origBoundary="11.119002,46.057180,11.130705,46.064369" projParameter="+proj=utm +zone=32 +ellps=WGS84 +datum=WGS84 +units=m +no_defs"/>

    <type id="highway.bridleway" priority="1" numLanes="1" speed="2.78" allow="pedestrian" oneway="1" width="2.00"/>
    <type id="highway.bus_guideway" priority="1" numLanes="1" speed="27.78" allow="bus" oneway="1"/>
    <type id="highway.cycleway" priority="1" numLanes="1" speed="8.33" allow="bicycle" oneway="0" width="1.00"/>
    <type id="highway.footway" priority="1" numLanes="1" speed="2.78" allow="pedestrian" oneway="1" width="2.00"/>
    <type id="highway.ford" priority="1" numLanes="1" speed="2.78" allow="army" oneway="0"/>
    <type id="highway.living_street" priority="2" numLanes="1" speed="2.78" disallow="tram rail_urban rail rail_electric rail_fast ship" oneway="0"/>
    <type id="highway.motorway" priority="14" numLanes="2" speed="39.44" allow="private emergency authority army vip passenger hov taxi bus coach delivery truck trailer motorcycle evehicle custom1 custom2" oneway="1"/>
    <type id="highway.motorway_link" priority="9" numLanes="1" speed="22.22" allow="private emergency authority army vip passenger hov taxi bus coach delivery truck trailer motorcycle evehicle custom1 custom2" oneway="1"/>
    <type id="highway.path" priority="1" numLanes="1" speed="2.78" allow="pedestrian bicycle" oneway="0" width="2.00"/>
    <type id="highway.pedestrian" priority="1" numLanes="1" speed="2.78" allow="pedestrian" oneway="1" width="2.00"/>
    <type id="highway.primary" priority="12" numLanes="2" speed="27.78" disallow="tram rail_urban rail rail_electric rail_fast ship" oneway="0"/>
    <type id="highway.primary_link" priority="7" numLanes="1" speed="22.22" disallow="tram rail_urban rail rail_electric rail_fast ship" oneway="0"/>
    <type id="highway.raceway" priority="15" numLanes="2" speed="83.33" allow="vip" oneway="0"/>
    <type id="highway.residential" priority="3" numLanes="1" speed="13.89" disallow="tram rail_urban rail rail_electric rail_fast ship" oneway="0"/>
    <type id="highway.secondary" priority="11" numLanes="1" speed="27.78" disallow="tram rail_urban rail rail_electric rail_fast ship" oneway="0"/>
    <type id="highway.secondary_link" priority="6" numLanes="1" speed="22.22" disallow="tram rail_urban rail rail_electric rail_fast ship" oneway="0"/>
    <type id="highway.service" priority="1" numLanes="1" speed="5.56" allow="pedestrian delivery bicycle" oneway="0"/>
    <type id="highway.stairs" priority="1" numLanes="1" speed="1.39" allow="pedestrian" oneway="1" width="2.00"/>
    <type id="highway.step" priority="1" numLanes="1" speed="1.39" allow="pedestrian" oneway="1" width="2.00"/>
    <type id="highway.steps" priority="1" numLanes="1" speed="1.39" allow="pedestrian" oneway="1" width="2.00"/>
    <type id="highway.tertiary" priority="10" numLanes="1" speed="22.22" disallow="tram rail_urban rail rail_electric rail_fast ship" oneway="0"/>
    <type id="highway.tertiary_link" priority="5" numLanes="1" speed="22.22" disallow="tram rail_urban rail rail_electric rail_fast ship" oneway="0"/>
    <type id="highway.track" priority="1" numLanes="1" speed="5.56" allow="pedestrian motorcycle moped bicycle" oneway="0"/>
    <type id="highway.trunk" priority="13" numLanes="2" speed="27.78" disallow="pedestrian bicycle tram rail_urban rail rail_electric rail_fast ship" oneway="0"/>
    <type id="highway.trunk_link" priority="8" numLanes="1" speed="22.22" disallow="pedestrian bicycle tram rail_urban rail rail_electric rail_fast ship" oneway="0"/>
    <type id="highway.unclassified" priority="4" numLanes="1" speed="13.89" disallow="tram rail_urban rail rail_electric rail_fast ship" oneway="0"/>
    <type id="highway.unsurfaced" priority="1" numLanes="1" speed="8.33" disallow="tram rail_urban rail rail_electric rail_fast ship" oneway="0"/>
    <type id="railway.highspeed" priority="21" numLanes="1" speed="69.44" allow="rail_fast" oneway="1"/>
    <type id="railway.light_rail" priority="19" numLanes="1" speed="27.78" allow="rail_urban" oneway="1"/>
    <type id="railway.preserved" priority="16" numLanes="1" speed="27.78" allow="rail" oneway="1"/>
    <type id="railway.rail" priority="20" numLanes="1" speed="44.44" allow="rail" oneway="1"/>
    <type id="railway.subway" priority="18" numLanes="1" speed="27.78" allow="rail_urban" oneway="1"/>
    <type id="railway.tram" priority="17" numLanes="1" speed="13.89" allow="tram" oneway="1"/>

    <edge id=":1010809802_0" function="internal">
        <lane id=":1010809802_0_0" index="0" disallow="tram rail_urban rail rail_electric rail_fast ship" speed="13.89" length="5.03" shape="666.85,389.83 662.83,386.80"/>
    </edge>
    <edge id=":1010809802_1" function="internal">
        <lane id=":1010809802_1_0" index="0" disallow="tram rail_urban rail rail_electric rail_fast ship" speed="13.89" length="5.10" shape="664.73,384.22 668.80,387.30"/>
    </edge>
    <edge id=":1010809820_0" function="internal">
        <lane id=":1010809820_0_0" index="0" disallow="tram rail_urban rail rail_electric rail_fast ship" speed="13.89" length="5.04" shape="660.97,372.80 663.89,368.70"/>
    </edge>
    <edge id=":1010809865_0" function="internal">
        <lane id=":1010809865_0_0" index="0" disallow="tram rail_urban rail rail_electric rail_fast ship" speed="13.89" length="5.04" shape="647.93,391.38 650.80,387.24"/>
    </edge>
    <edge id=":1084291815_0" function="internal">
        <lane id=":1084291815_0_0" index="0" allow="pedestrian delivery bicycle" speed="3.65" length="4.67" shape="121.64,345.31 120.43,344.53 120.02,343.73 120.40,342.93 121.59,342.11"/>
    </edge>
    <edge id=":1131515193_0" function="internal">
        <lane id=":1131515193_0_0" index="0" allow="pedestrian delivery bicycle" speed="5.56" length="1.79" shape="396.46,566.47 397.13,564.81"/>
    </edge>
    <edge id=":1131515193_1" function="internal">
        <lane id=":1131515193_1_0" index="0" allow="pedestrian delivery bicycle" speed="3.65" length="4.67" shape="396.46,566.47 395.65,565.28 395.59,564.39 396.26,563.80 397.68,563.52"/>
    </edge>
    <edge id=":1131515305_0" function="internal">
        <lane id=":1131515305_0_0" index="0" allow="bicycle" speed="3.85" length="3.27" width="1.00" shape="402.84,520.22 401.08,522.98"/>
    </edge>
    <edge id=":1131515305_1" function="internal">
        <lane id=":1131515305_1_0" index="0" allow="pedestrian bicycle" speed="3.62" length="6.15" width="1.00" shape="402.84,520.22 401.83,521.83 400.79,522.38 399.72,521.89 398.63,520.34"/>
    </edge>
    <edge id=":1131515305_2" function="internal">
        <lane id=":1131515305_2_0" index="0" allow="bicycle" speed="3.83" length="3.24" width="1.00" shape="400.11,522.74 400.20,521.85 399.98,521.15 399.46,520.65 398.63,520.34"/>
    </edge>
    <edge id=":1131515305_3" function="internal">
        <lane id=":1131515305_3_0" index="0" allow="bicycle" speed="2.04" length="1.46" width="1.00" shape="400.11,522.74 400.44,522.44 400.72,522.38 400.93,522.56 401.08,522.98"/>
    </edge>
    <edge id=":1276876577_0" function="internal">
        <lane id=":1276876577_0_0" index="0" allow="pedestrian delivery bicycle" speed="3.65" length="4.67" shape="370.03,270.41 368.95,269.46 368.66,268.61 369.16,267.87 370.46,267.24"/>
    </edge>
    <edge id=":1276876578_0" function="internal">
        <lane id=":1276876578_0_0" index="0" allow="pedestrian bicycle" speed="2.04" length="1.46" width="1.00" shape="282.20,134.31 281.94,133.94 281.91,133.66 282.11,133.48 282.55,133.38"/>
    </edge>
    <edge id=":1276876595_0" function="internal">
        <lane id=":1276876595_0_0" index="0" allow="pedestrian delivery bicycle" speed="3.65" length="4.67" shape="438.38,231.45 437.19,232.27 436.30,232.34 435.71,231.66 435.42,230.25"/>
    </edge>
    <edge id=":1279291520_0" function="internal">
        <lane id=":1279291520_0_0" index="0" allow="pedestrian delivery bicycle" speed="3.65" length="4.67" shape="174.85,362.25 173.74,363.16 172.85,363.30 172.21,362.69 171.80,361.30"/>
    </edge>
    <edge id=":1299015534_0" function="internal">
        <lane id=":1299015534_0_0" index="0" allow="pedestrian bicycle" speed="2.04" length="1.46" width="1.00" shape="616.38,183.88 616.81,183.74 617.09,183.80 617.21,184.06 617.17,184.51"/>
    </edge>
    <edge id=":1311008989_0" function="internal">
        <lane id=":1311008989_0_0" index="0" allow="pedestrian bicycle" speed="8.33" length="5.00" width="1.00" shape="608.71,219.90 605.72,223.91"/>
    </edge>
    <edge id=":1311008989_1" function="internal">
        <lane id=":1311008989_1_0" index="0" allow="pedestrian bicycle" speed="2.04" length="1.46" width="1.00" shape="608.71,219.90 608.29,220.05 608.01,220.00 607.89,219.75 607.91,219.30"/>
    </edge>
    <edge id=":1311008989_2" function="internal">
        <lane id=":1311008989_2_0" index="0" allow="pedestrian bicycle" speed="8.33" length="5.00" width="1.00" shape="604.92,223.31 607.91,219.30"/>
    </edge>
    <edge id=":1311008989_3" function="internal">
        <lane id=":1311008989_3_0" index="0" allow="pedestrian bicycle" speed="2.04" length="1.46" width="1.00" shape="604.92,223.31 605.34,223.16 605.62,223.21 605.74,223.46 605.72,223.91"/>
    </edge>
    <edge id=":1311009165_0" function="internal">
        <lane id=":1311009165_0_0" index="0" allow="pedestrian delivery bicycle" speed="5.56" length="14.82" shape="623.49,218.64 614.26,230.23"/>
    </edge>
    <edge id=":1311009165_1" function="internal">
        <lane id=":1311009165_1_0" index="0" allow="pedestrian delivery bicycle" speed="3.65" length="1.44" shape="623.49,218.64 622.12,219.07"/>
    </edge>
    <edge id=":1311009165_4" function="internal">
        <lane id=":1311009165_4_0" index="0" allow="pedestrian delivery bicycle" speed="3.65" length="3.23" shape="622.12,219.07 621.24,218.88 620.87,218.06 621.01,216.63"/>
    </edge>
    <edge id=":1311009165_2" function="internal">
        <lane id=":1311009165_2_0" index="0" allow="pedestrian delivery bicycle" speed="5.56" length="14.97" shape="611.68,228.34 621.01,216.63"/>
    </edge>
    <edge id=":1311009165_3" function="internal">
        <lane id=":1311009165_3_0" index="0" allow="pedestrian delivery bicycle" speed="3.65" length="1.44" shape="611.68,228.34 613.03,227.85"/>
    </edge>
    <edge id=":1311009165_5" function="internal">
        <lane id=":1311009165_5_0" index="0" allow="pedestrian delivery bicycle" speed="3.65" length="3.23" shape="613.03,227.85 613.92,228.00 614.32,228.79 614.26,230.23"/>
    </edge>
    <edge id=":1493626979_0" function="internal">
        <lane id=":1493626979_0_0" index="0" allow="pedestrian delivery bicycle" speed="3.65" length="4.67" shape="735.76,359.92 737.19,359.74 738.02,360.08 738.24,360.95 737.85,362.34"/>
    </edge>
    <edge id=":1493626987_0" function="internal">
        <lane id=":1493626987_0_0" index="0" allow="pedestrian delivery bicycle" speed="3.65" length="4.67" shape="705.23,379.29 706.60,378.83 707.47,379.00 707.86,379.81 707.76,381.24"/>
    </edge>
    <edge id=":1493627025_0" function="internal">
        <lane id=":1493627025_0_0" index="0" allow="pedestrian delivery bicycle" speed="3.65" length="4.67" shape="721.56,404.36 722.97,404.03 723.83,404.28 724.14,405.12 723.90,406.54"/>
    </edge>
    <edge id=":1493627036_0" function="internal">
        <lane id=":1493627036_0_0" index="0" allow="pedestrian delivery bicycle" speed="3.65" length="4.67" shape="735.57,415.82 736.97,415.47 737.83,415.72 738.15,416.55 737.94,417.98"/>
    </edge>
    <edge id=":1493627050_0" function="internal">
        <lane id=":1493627050_0_0" index="0" disallow="tram rail_urban rail rail_electric rail_fast ship" speed="13.89" length="9.34" shape="708.37,427.20 701.82,420.55"/>
    </edge>
    <edge id=":1493627050_1" function="internal">
        <lane id=":1493627050_1_0" index="0" allow="pedestrian delivery bicycle" speed="6.50" length="3.57" shape="708.37,427.20 706.67,425.02 706.40,424.25"/>
    </edge>
    <edge id=":1493627050_7" function="internal">
        <lane id=":1493627050_7_0" index="0" allow="pedestrian delivery bicycle" speed="6.50" length="5.42" shape="706.40,424.25 705.95,422.98 706.20,421.08 707.43,419.32"/>
    </edge>
    <edge id=":1493627050_2" function="internal">
        <lane id=":1493627050_2_0" index="0" allow="pedestrian delivery bicycle" speed="4.57" length="3.92" shape="709.70,421.57 709.31,422.23 709.35,423.01 709.80,423.92 710.66,424.96"/>
    </edge>
    <edge id=":1493627050_3" function="internal">
        <lane id=":1493627050_3_0" index="0" allow="pedestrian delivery bicycle" speed="6.52" length="9.01" shape="709.70,421.57 707.91,422.78 706.00,423.02 703.97,422.27 701.82,420.55"/>
    </edge>
    <edge id=":1493627050_4" function="internal">
        <lane id=":1493627050_4_0" index="0" allow="pedestrian delivery bicycle" speed="3.65" length="4.67" shape="709.70,421.57 708.29,421.86 707.44,421.58 707.15,420.73 707.43,419.32"/>
    </edge>
    <edge id=":1493627050_5" function="internal">
        <lane id=":1493627050_5_0" index="0" allow="pedestrian delivery bicycle" speed="4.57" length="3.89" shape="704.08,418.28 705.11,419.17 706.01,419.63 706.78,419.68 707.43,419.32"/>
    </edge>
    <edge id=":1493627050_6" function="internal">
        <lane id=":1493627050_6_0" index="0" disallow="tram rail_urban rail rail_electric rail_fast ship" speed="13.89" length="9.38" shape="704.08,418.28 710.66,424.96"/>
    </edge>
    <edge id=":1493627086_0" function="internal">
        <lane id=":1493627086_0_0" index="0" allow="pedestrian delivery bicycle" speed="3.65" length="4.67" shape="759.56,440.70 759.89,442.11 759.64,442.96 758.81,443.28 757.38,443.05"/>
    </edge>
    <edge id=":1493627093_0" function="internal">
        <lane id=":1493627093_0_0" index="0" disallow="tram rail_urban rail rail_electric rail_fast ship" speed="13.89" length="9.29" shape="732.96,452.05 726.43,445.44"/>
    </edge>
    <edge id=":1493627093_1" function="internal">
        <lane id=":1493627093_1_0" index="0" allow="pedestrian delivery bicycle" speed="6.54" length="3.50" shape="732.96,452.05 731.32,449.94 731.04,449.16"/>
    </edge>
    <edge id=":1493627093_7" function="internal">
        <lane id=":1493627093_7_0" index="0" allow="pedestrian delivery bicycle" speed="6.54" length="5.20" shape="731.04,449.16 730.60,447.96 730.78,446.09 731.87,444.35"/>
    </edge>
    <edge id=":1493627093_2" function="internal">
        <lane id=":1493627093_2_0" index="0" allow="pedestrian delivery bicycle" speed="4.60" length="3.81" shape="734.23,446.52 733.90,447.16 733.96,447.92 734.42,448.81 735.26,449.83"/>
    </edge>
    <edge id=":1493627093_3" function="internal">
        <lane id=":1493627093_3_0" index="0" allow="pedestrian delivery bicycle" speed="6.41" length="8.98" shape="734.23,446.52 732.54,447.76 730.68,447.99 728.64,447.21 726.43,445.44"/>
    </edge>
    <edge id=":1493627093_4" function="internal">
        <lane id=":1493627093_4_0" index="0" allow="pedestrian delivery bicycle" speed="3.65" length="4.67" shape="734.23,446.52 732.83,446.86 731.97,446.61 731.65,445.78 731.87,444.35"/>
    </edge>
    <edge id=":1493627093_5" function="internal">
        <lane id=":1493627093_5_0" index="0" allow="pedestrian delivery bicycle" speed="4.45" length="3.75" shape="728.68,443.16 729.72,444.07 730.60,444.57 731.32,444.67 731.87,444.35"/>
    </edge>
    <edge id=":1493627093_6" function="internal">
        <lane id=":1493627093_6_0" index="0" disallow="tram rail_urban rail rail_electric rail_fast ship" speed="13.89" length="9.37" shape="728.68,443.16 735.26,449.83"/>
    </edge>
    <edge id=":1583907804_0" function="internal">
        <lane id=":1583907804_0_0" index="0" allow="pedestrian delivery bicycle" speed="5.00" length="4.82" shape="500.28,559.52 498.98,559.13 497.88,559.22 496.97,559.79 496.25,560.85"/>
    </edge>
    <edge id=":1583907804_1" function="internal">
        <lane id=":1583907804_1_0" index="0" disallow="tram rail_urban rail rail_electric rail_fast ship" speed="27.78" length="9.40" shape="500.28,559.52 491.72,555.65"/>
    </edge>
    <edge id=":1583907804_2" function="internal">
        <lane id=":1583907804_2_0" index="0" disallow="tram rail_urban rail rail_electric rail_fast ship" speed="27.78" length="9.40" shape="493.04,552.73 501.60,556.61"/>
    </edge>
    <edge id=":1583907804_3" function="internal">
        <lane id=":1583907804_3_0" index="0" allow="pedestrian delivery bicycle" speed="6.77" length="3.35" shape="493.04,552.73 495.43,554.23 495.74,554.66"/>
    </edge>
    <edge id=":1583907804_7" function="internal">
        <lane id=":1583907804_7_0" index="0" allow="pedestrian delivery bicycle" speed="6.77" length="6.65" shape="495.74,554.66 496.76,556.08 497.03,558.29 496.25,560.85"/>
    </edge>
    <edge id=":1583907804_4" function="internal">
        <lane id=":1583907804_4_0" index="0" allow="pedestrian delivery bicycle" speed="4.91" length="4.76" shape="493.36,559.47 493.72,558.28 493.56,557.25 492.89,556.37 491.72,555.65"/>
    </edge>
    <edge id=":1583907804_5" function="internal">
        <lane id=":1583907804_5_0" index="0" allow="pedestrian delivery bicycle" speed="6.83" length="9.90" shape="493.36,559.47 494.85,557.26 496.72,556.04 498.97,555.83 501.60,556.61"/>
    </edge>
    <edge id=":1583907804_6" function="internal">
        <lane id=":1583907804_6_0" index="0" allow="pedestrian delivery bicycle" speed="3.65" length="4.67" shape="493.36,559.47 494.60,558.73 495.50,558.72 496.05,559.42 496.25,560.85"/>
    </edge>
    <edge id=":1585237281_0" function="internal">
        <lane id=":1585237281_0_0" index="0" allow="pedestrian delivery bicycle" speed="3.65" length="4.67" shape="473.67,678.71 472.62,679.69 471.75,679.90 471.06,679.33 470.55,677.98"/>
    </edge>
    <edge id=":1635336705_0" function="internal">
        <lane id=":1635336705_0_0" index="0" allow="pedestrian bicycle" speed="2.04" length="1.46" width="1.00" shape="193.91,708.19 193.49,708.36 193.22,708.32 193.08,708.07 193.09,707.62"/>
    </edge>
    <edge id=":1640507755_0" function="internal">
        <lane id=":1640507755_0_0" index="0" allow="pedestrian bicycle" speed="8.33" length="4.97" width="1.00" shape="592.99,214.83 589.94,218.75"/>
    </edge>
    <edge id=":1640507755_1" function="internal">
        <lane id=":1640507755_1_0" index="0" allow="pedestrian bicycle" speed="2.04" length="1.46" width="1.00" shape="592.99,214.83 592.57,214.97 592.29,214.91 592.17,214.66 592.21,214.21"/>
    </edge>
    <edge id=":1640507755_2" function="internal">
        <lane id=":1640507755_2_0" index="0" allow="pedestrian bicycle" speed="8.33" length="4.99" width="1.00" shape="589.14,218.14 592.21,214.21"/>
    </edge>
    <edge id=":1640507755_3" function="internal">
        <lane id=":1640507755_3_0" index="0" allow="pedestrian bicycle" speed="2.04" length="1.46" width="1.00" shape="589.14,218.14 589.57,218.00 589.84,218.05 589.97,218.30 589.94,218.75"/>
    </edge>
    <edge id=":1640507783_0" function="internal">
        <lane id=":1640507783_0_0" index="0" allow="pedestrian delivery bicycle" speed="3.65" length="4.67" shape="545.01,366.15 545.42,367.53 545.22,368.40 544.40,368.76 542.97,368.61"/>
    </edge>
    <edge id=":1643482692_0" function="internal">
        <lane id=":1643482692_0_0" index="0" allow="pedestrian delivery bicycle" speed="5.56" length="14.46" shape="258.25,377.58 259.54,375.49 261.42,370.65 263.05,365.94 263.60,364.19"/>
    </edge>
    <edge id=":1643482692_1" function="internal">
        <lane id=":1643482692_1_0" index="0" allow="pedestrian delivery bicycle" speed="5.56" length="20.82" shape="258.25,377.58 257.97,376.14 258.56,372.28 260.03,366.00 262.37,357.31"/>
    </edge>
    <edge id=":1643482692_2" function="internal">
        <lane id=":1643482692_2_0" index="0" allow="pedestrian delivery bicycle" speed="5.56" length="22.11" shape="258.25,377.58 255.20,371.48 255.44,367.25 258.96,364.91 265.76,364.44"/>
    </edge>
    <edge id=":1643482692_3" function="internal">
        <lane id=":1643482692_3_0" index="0" allow="pedestrian delivery bicycle" speed="5.56" length="6.38" shape="265.45,358.17 265.27,360.00 265.62,361.31 265.97,362.61 265.76,364.44"/>
    </edge>
    <edge id=":1643482692_4" function="internal">
        <lane id=":1643482692_4_0" index="0" allow="pedestrian delivery bicycle" speed="5.56" length="6.31" shape="265.45,358.17 264.97,359.98 264.64,361.22 264.25,362.44 263.60,364.19"/>
    </edge>
    <edge id=":1643482692_5" function="internal">
        <lane id=":1643482692_5_0" index="0" allow="pedestrian delivery bicycle" speed="3.65" length="4.67" shape="265.45,358.17 264.36,359.11 263.48,359.28 262.82,358.68 262.37,357.31"/>
    </edge>
    <edge id=":1643482692_6" function="internal">
        <lane id=":1643482692_6_0" index="0" allow="pedestrian delivery bicycle" speed="5.56" length="6.16" shape="259.08,362.41 259.82,360.79 260.72,359.86 261.63,358.93 262.37,357.31"/>
    </edge>
    <edge id=":1643482692_7" function="internal">
        <lane id=":1643482692_7_0" index="0" allow="pedestrian delivery bicycle" speed="4.22" length="6.99" shape="259.08,362.41 265.76,364.44"/>
    </edge>
    <edge id=":1643482692_8" function="internal">
        <lane id=":1643482692_8_0" index="0" allow="pedestrian delivery bicycle" speed="4.30" length="7.10" shape="259.08,362.41 260.88,361.16 262.23,361.04 263.14,362.05 263.60,364.19"/>
    </edge>
    <edge id=":1643482698_0" function="internal">
        <lane id=":1643482698_0_0" index="0" allow="pedestrian delivery bicycle" speed="6.07" length="7.73" shape="225.49,378.28 224.32,377.53 223.73,376.12 223.73,374.07 224.32,371.37"/>
    </edge>
    <edge id=":1643482698_1" function="internal">
        <lane id=":1643482698_1_0" index="0" allow="pedestrian delivery bicycle" speed="3.65" length="4.67" shape="225.49,378.28 224.57,377.16 224.42,376.28 225.03,375.63 226.41,375.21"/>
    </edge>
    <edge id=":1643482698_2" function="internal">
        <lane id=":1643482698_2_0" index="0" disallow="tram rail_urban rail rail_electric rail_fast ship" speed="13.89" length="9.36" shape="221.59,380.32 224.32,371.37"/>
    </edge>
    <edge id=":1643482698_3" function="internal">
        <lane id=":1643482698_3_0" index="0" allow="pedestrian delivery bicycle" speed="6.12" length="7.72" shape="221.59,380.32 222.61,377.77 223.75,376.07 225.02,375.21 226.41,375.21"/>
    </edge>
    <edge id=":1643482701_0" function="internal">
        <lane id=":1643482701_0_0" index="0" allow="pedestrian delivery bicycle" speed="3.91" length="2.51" shape="255.70,380.12 255.09,379.82 254.71,379.39 254.57,378.84 254.66,378.16"/>
    </edge>
    <edge id=":1643482701_1" function="internal">
        <lane id=":1643482701_1_0" index="0" allow="pedestrian delivery bicycle" speed="3.65" length="2.22" shape="257.75,379.03 256.69,377.07"/>
    </edge>
    <edge id=":1643482720_0" function="internal">
        <lane id=":1643482720_0_0" index="0" allow="pedestrian delivery bicycle" speed="3.65" length="4.67" shape="254.17,383.25 255.10,384.35 255.26,385.23 254.66,385.89 253.28,386.33"/>
    </edge>
    <edge id=":1643482732_0" function="internal">
        <lane id=":1643482732_0_0" index="0" allow="pedestrian delivery bicycle" speed="6.14" length="7.93" shape="221.28,394.07 219.95,393.34 219.21,391.94 219.07,389.88 219.53,387.15"/>
    </edge>
    <edge id=":1643482732_1" function="internal">
        <lane id=":1643482732_1_0" index="0" allow="pedestrian delivery bicycle" speed="3.65" length="4.67" shape="221.28,394.07 220.30,393.01 220.11,392.13 220.68,391.45 222.04,390.96"/>
    </edge>
    <edge id=":1643482732_2" function="internal">
        <lane id=":1643482732_2_0" index="0" disallow="tram rail_urban rail rail_electric rail_fast ship" speed="13.89" length="9.53" shape="217.62,396.49 219.53,387.15"/>
    </edge>
    <edge id=":1643482732_3" function="internal">
        <lane id=":1643482732_3_0" index="0" allow="pedestrian delivery bicycle" speed="6.00" length="7.98" shape="217.62,396.49 218.29,393.76 219.25,391.93 220.50,391.00 222.04,390.96"/>
    </edge>
    <edge id=":1643482736_0" function="internal">
        <lane id=":1643482736_0_0" index="0" allow="pedestrian delivery bicycle" speed="3.65" length="4.67" shape="266.62,399.01 265.55,398.05 265.27,397.20 265.77,396.46 267.08,395.84"/>
    </edge>
    <edge id=":1643482738_0" function="internal">
        <lane id=":1643482738_0_0" index="0" allow="pedestrian delivery bicycle" speed="3.65" length="4.67" shape="253.99,399.02 254.95,400.09 255.14,400.97 254.56,401.64 253.20,402.13"/>
    </edge>
    <edge id=":1663929722_0" function="internal">
        <lane id=":1663929722_0_0" index="0" allow="pedestrian bicycle" speed="5.55" length="2.34" width="1.00" shape="573.41,487.68 571.16,488.33"/>
    </edge>
    <edge id=":1663929722_1" function="internal">
        <lane id=":1663929722_1_0" index="0" allow="pedestrian bicycle" speed="5.32" length="6.61" width="1.00" shape="573.41,487.68 572.66,488.11 571.44,487.91 569.74,487.07 567.57,485.60"/>
    </edge>
    <edge id=":1663929722_2" function="internal">
        <lane id=":1663929722_2_0" index="0" allow="pedestrian bicycle" speed="2.61" length="0.87" width="1.00" shape="573.41,487.68 572.72,487.14"/>
    </edge>
    <edge id=":1663929722_9" function="internal">
        <lane id=":1663929722_9_0" index="0" allow="pedestrian bicycle" speed="2.61" length="1.95" width="1.00" shape="572.72,487.14 572.51,486.64 572.78,486.18 573.54,485.75"/>
    </edge>
    <edge id=":1663929722_3" function="internal">
        <lane id=":1663929722_3_0" index="0" allow="pedestrian bicycle" speed="5.13" length="6.05" width="1.00" shape="568.17,484.80 569.99,485.96 571.49,486.51 572.68,486.44 573.54,485.75"/>
    </edge>
    <edge id=":1663929722_4" function="internal">
        <lane id=":1663929722_4_0" index="0" allow="pedestrian bicycle" speed="4.64" length="4.09" width="1.00" shape="568.17,484.80 569.72,486.03 570.73,487.03 571.10,487.62"/>
    </edge>
    <edge id=":1663929722_5" function="internal">
        <lane id=":1663929722_5_0" index="0" allow="pedestrian bicycle" speed="2.04" length="1.20" width="1.00" shape="568.17,484.80 568.32,485.22 568.27,485.50 568.03,485.62 567.84,485.62"/>
    </edge>
    <edge id=":1663929722_10" function="internal">
        <lane id=":1663929722_10_0" index="0" allow="pedestrian bicycle" speed="4.64" length="0.75" width="1.00" shape="571.10,487.62 571.21,487.80 571.16,488.33"/>
    </edge>
    <edge id=":1663929722_11" function="internal">
        <lane id=":1663929722_11_0" index="0" allow="pedestrian bicycle" speed="2.04" length="0.27" width="1.00" shape="567.84,485.62 567.57,485.60"/>
    </edge>
    <edge id=":1663929722_6" function="internal">
        <lane id=":1663929722_6_0" index="0" allow="pedestrian bicycle" speed="3.79" length="2.79" width="1.00" shape="569.57,487.12 569.63,486.63 569.10,486.28 568.31,485.98 567.57,485.60"/>
    </edge>
    <edge id=":1663929722_7" function="internal">
        <lane id=":1663929722_7_0" index="0" allow="pedestrian bicycle" speed="5.55" length="4.20" width="1.00" shape="569.57,487.12 573.54,485.75"/>
    </edge>
    <edge id=":1663929722_8" function="internal">
        <lane id=":1663929722_8_0" index="0" allow="pedestrian bicycle" speed="2.78" length="2.92" width="2.00" shape="569.57,487.12 570.42,486.82 570.97,486.93 571.22,487.43 571.16,488.33"/>
    </edge>
    <edge id=":1663929751_0" function="internal">
        <lane id=":1663929751_0_0" index="0" allow="pedestrian bicycle" speed="2.78" length="4.52" width="2.00" shape="517.15,561.28 515.88,560.85 515.02,560.51 514.20,560.11 513.00,559.50"/>
    </edge>
    <edge id=":1663929751_1" function="internal">
        <lane id=":1663929751_1_0" index="0" allow="pedestrian bicycle" speed="2.78" length="3.02" width="2.00" shape="517.15,561.28 516.57,560.55 516.49,559.98 516.90,559.57 517.80,559.32"/>
    </edge>
    <edge id=":1663929751_2" function="internal">
        <lane id=":1663929751_2_0" index="0" allow="pedestrian bicycle" speed="2.78" length="4.31" width="2.00" shape="513.91,557.72 515.01,558.38 515.77,558.91 516.57,559.24 517.80,559.32"/>
    </edge>
    <edge id=":1663929751_3" function="internal">